data_I
_chemical_name_common  '/data/user2/wty/HOF/MOFDiff/mofdiff/data/test/13-1d1_dm'
_cell_length_a 11.35540
_cell_length_b 18.99320
_cell_length_c 21.72880
_cell_angle_alpha 83.18400
_cell_angle_beta  81.32310
_cell_angle_gamma 82.22730
_space_group_name_H-M_alt      'P 1'


loop_
_space_group_symop_operation_xyz
  'x, y, z' 

loop_
_atom_site_label
_atom_site_fract_x
_atom_site_fract_y
_atom_site_fract_z
_atom_site_type_symbol
O0      0.6823   0.5941  0.36035     O
O1      0.7419  0.49731  0.31117     O
O2       0.313  0.51144  0.06309     O
O3      0.2738  0.47362  0.97659     O
O4      0.0939   0.1847  0.38215     O
O5      0.0618   0.0833  0.34844     O
O6       0.426   0.4125   0.4132     O
O7      0.4932   0.3283   0.3476     O
O8      0.4528  0.37136  0.97401     O
O9      0.5011    0.414  0.05707     O
O10     0.6909   0.0892  0.36057     O
O11     0.5345   0.0938  0.31143     O
C12     0.4364   0.9196  0.01182     C
C13     0.5274  0.87974  0.01115     C
C14     0.6315  0.82849  0.01359     C
C15     0.6488  0.78667  0.06898     C
C16      0.746   0.7335  0.07387     C
C17     0.8298  0.72289  0.01993     C
C18     0.8151  0.76447   0.9642     C
C19     0.7167  0.81755  0.95962     C
C20      0.702  0.86058   0.9022     C
C21     0.6833  0.89938  0.85602     C
C22     0.6634  0.94537  0.80399     C
C23     0.6439  0.98675  0.75942     C
C24      0.621  0.03838  0.70815     C
C25     0.7066  0.04318  0.65437     C
C26     0.6906   0.0948  0.60526     C
C27      0.583  0.14237  0.60701     C
C28     0.4974  0.13585  0.65994     C
C29     0.5147  0.08484  0.71046     C
C30     0.4225  0.08137   0.7631     C
C31     0.3436  0.08112  0.80707     C
C32     0.2562  0.08233  0.85747     C
C33      0.181  0.08697  0.90266     C
C34     0.0994  0.09194  0.95915     C
C35     0.9952  0.14059  0.96256     C
C36       0.92  0.14885  0.01913     C
C37     0.9468  0.10536  0.07312     C
C38     0.0509   0.0563  0.06987     C
C39     0.1286  0.04978  0.01402     C
C40      0.237   0.0018  0.01345     C
C41     0.3309  0.96384  0.01249     C
C42      0.749  0.68962  0.13493     C
C43     0.7281  0.72308  0.18999     C
C44     0.7211   0.6819  0.24778     C
C45     0.7299   0.6075  0.25015     C
C46      0.756  0.57492  0.19619     C
C47      0.763  0.61518  0.13845     C
C48     0.7141    0.565   0.3126     C
C49     0.9391  0.66916  0.02053     C
C50     0.0126  0.66387  0.06747     C
C51      0.114  0.61396  0.06643     C
C52      0.141    0.568  0.01969     C
C53     0.0694  0.57351  0.97244     C
C54     0.9679  0.62377   0.9729     C
C55     0.2485  0.51398  0.01861     C
C56     0.7882   0.1013  0.55156     C
C57     0.8436   0.1605   0.5378     C
C58     0.9306   0.1686   0.4866     C
C59     0.9584   0.1159  0.44632     C
C60      0.907   0.0556   0.4605     C
C61     0.8233   0.0462  0.51389     C
C62     0.0442   0.1253  0.38688     C
C63     0.5548   0.1959  0.55404     C
C64     0.4991   0.2632  0.56617     C
C65     0.4732   0.3141   0.5167     C
C66     0.4985   0.2965   0.4559     C
C67       0.55   0.2291  0.44312     C
C68     0.5786   0.1795  0.49229     C
C69     0.4719   0.3513   0.4036     C
C70     0.8162  0.20602   0.0192     C
C71     0.7955  0.25519   0.0636     C
C72     0.6998  0.30936  0.06248     C
C73     0.6233  0.31387  0.01713     C
C74     0.6443  0.26564  0.97233     C
C75     0.7411   0.2121  0.97333     C
C76     0.5202  0.37063  0.01715     C
C77     0.8669  0.10495  0.13417     C
C78      0.917   0.1067  0.19006     C
C79     0.8447   0.1031  0.24653     C
C80     0.7244   0.0962  0.25056     C
C81     0.6729  0.09602  0.19482     C
C82     0.7457  0.10079  0.13823     C
C83      0.647   0.0911   0.3124     C
H84    0.73989  0.47786  0.34702     H
H85    0.37317  0.48275  0.05653     H
H86    0.59339  0.79426  0.10442     H
H87    0.13885  0.18844  0.34897     H
H88    0.87142  0.75717  0.92906     H
H89    0.45933  0.35714  0.32287     H
H90    0.39991  0.40528  0.97663     H
H91    0.49946  0.09222  0.34736     H
H92    0.77572  0.01066  0.65189     H
H93    0.42626  0.16665   0.6616     H
H94    0.97542   0.1681   0.9264     H
H95    0.06867  0.02742  0.10573     H
H96    0.71888  0.77265  0.18819     H
H97    0.71064  0.70392  0.28458     H
H98    0.76926  0.52535  0.19815     H
H99    0.77705  0.59248  0.10195     H
H100   0.99344  0.69377  0.09938     H
H101   0.16397  0.61129  0.09704     H
H102   0.08923  0.54367  0.94052     H
H103   0.91941  0.62713  0.94156     H
H104   0.82272  0.19725   0.5636     H
H105   0.97017  0.20915  0.47929     H
H106    0.9275  0.01922  0.43433     H
H107   0.79116  0.00318  0.52413     H
H108   0.47893  0.27457  0.60722     H
H109   0.43882   0.3599  0.52477     H
H110   0.56544    0.217  0.40219     H
H111   0.61456  0.13412  0.48385     H
H112   0.84588  0.25181  0.09411     H
H113   0.68685  0.34243  0.09185     H
H114   0.59403  0.26902  0.94179     H
H115   0.75573  0.18012  0.94302     H
H116   0.99835  0.11024  0.18826     H
H117   0.87745  0.10534  0.28289     H
H118   0.59143  0.09274  0.19662     H
H119   0.71217  0.10123  0.10166     H
O120    0.1847   0.1838   0.6818     O
N121    0.0459   0.1009   0.7259     N
C122    0.1085   0.1589   0.7195     C
C123    0.0411   0.0615   0.6751     C
C124    0.9625   0.0783   0.7818     C
H125    0.0862  0.18616   0.7532     H
H126   0.11504  0.06174  0.64713     H
H127   0.97576  0.08282  0.65311     H
H128   0.02902  0.01315  0.69063     H
H129   0.88884  0.10987  0.78338     H
H130   0.99836  0.07985  0.81882     H
H131   0.94631  0.03043  0.77941     H
O132    0.9918   0.2878  0.16681     O
N133    0.8577   0.2983  0.25382     N
C134    0.9605   0.2725   0.2207     C
C135    0.7727   0.3473    0.224     C
C136    0.8215   0.2727   0.3189     C
H137   0.01213  0.23943  0.24196     H
H138   0.81187  0.36943  0.18579     H
H139   0.73841  0.38322  0.25123     H
H140   0.71039  0.32222  0.21494     H
H141    0.8897  0.24693  0.33618     H
H142   0.76062  0.24165  0.32113     H
H143   0.79042  0.31259  0.34225     H
O144    0.2091   0.2311   0.2777     O
N145    0.3625  0.26321  0.20927     N
C146    0.3094   0.2278   0.2574     C
C147    0.2916   0.3102   0.1665     C
C148    0.4898   0.2582   0.1928     C
H149   0.35972  0.19427  0.27906     H
H150   0.30779  0.29334  0.12575     H
H151   0.31282  0.35788  0.16368     H
H152   0.20782  0.31034   0.1819     H
H153   0.51798  0.30058   0.2022     H
H154    0.5101  0.25328  0.14888     H
H155   0.52674   0.2173  0.21626     H
O156    0.4107   0.0738   0.4216     O
N157    0.3128   0.1071   0.5028     N
C158    0.3528   0.1207   0.4409     C
C159    0.2571   0.1789    0.513     C
C160    0.3294   0.0615   0.5534     C
H161   0.33425  0.16389  0.41738     H
H162   0.17932  0.17682  0.53706     H
H163   0.24902  0.20607  0.47334     H
H164    0.3063  0.20136   0.5352     H
H165   0.39548   0.0258  0.54301     H
H166   0.25808  0.03898  0.56764     H
H167   0.34665  0.08702  0.58596     H
O168    0.4674   0.4232   0.2546     O
N169    0.4474   0.5432   0.2274     N
C170    0.4551   0.4875    0.273     C
C171     0.444   0.6212    0.239     C
C172    0.4621   0.5392   0.1681     C
H173   0.45188  0.49471  0.31483     H
H174   0.51071  0.62635  0.25981     H
H175    0.3704  0.63585   0.2648     H
H176   0.44861  0.65053  0.19978     H
H177   0.53763  0.51176    0.156     H
H178   0.46123  0.58643  0.14661     H
H179   0.39834  0.51656  0.15749     H
O180    0.7505   0.4197   0.4125     O
N181     0.728   0.4073   0.5115     N
C182    0.7026   0.4413   0.4587     C
C183    0.6799   0.4237   0.5714     C
C184    0.8088   0.3406   0.5085     C
H185   0.64713  0.48207  0.45802     H
H186   0.73063   0.4526  0.58629     H
H187   0.67452  0.38036  0.59883     H
H188   0.60128  0.44944  0.57058     H
H189   0.78178  0.31088  0.48198     H
H190   0.80922  0.31613  0.54976     H
H191   0.88849  0.35095  0.49174     H
O192    0.9103   0.2373    0.828     O
N193    0.7555   0.2276   0.7667     N
C194    0.8461   0.2536   0.7867     C
C195    0.6679   0.1896   0.8106     C
C196    0.7368    0.228   0.6978     C
H197   0.86534  0.29529  0.76251     H
H198   0.66101  0.20621  0.85117     H
H199   0.69426  0.13922  0.81345     H
H200   0.59117  0.19841  0.79585     H
H201   0.72819  0.18049  0.68961     H
H202   0.80485  0.24438  0.67087     H
H203   0.66571   0.2593  0.68997     H
loop_
_geom_bond_atom_site_label_1
_geom_bond_atom_site_label_2
_geom_bond_distance
_geom_bond_site_symmetry_2
_ccdc_geom_bond_type
H84   O180   1.70346       .     S
O180  H84    1.70346       .     S
H85   O9     1.81768       .     S
O9    H85    1.81768       .     S
H87   O144   1.78754       .     S
O144  H87    1.78754       .     S
H89   O168   1.82524       .     S
O168  H89    1.82524       .     S
H90   O3     1.79801       .     S
O3    H90    1.79801       .     S
H91   O156   1.79203       .     S
O156  H91    1.79203       .     S
O0    C48    1.21716       .     S
C48   O0     1.21716       .     S
O1    C48    1.28462       .     S
C48   O1     1.28462       .     S
O1    H84    0.82000       .     S
H84   O1     0.82000       .     S
O2    C55    1.29068       .     S
C55   O2     1.29068       .     S
O2    H85    0.82002       .     S
H85   O2     0.82002       .     S
O3    C55    1.23743   1_556     S
C55   O3     1.23743   1_554     S
O4    C62    1.31495       .     S
C62   O4     1.31495       .     S
O4    H87    0.81975       .     S
H87   O4     0.81975       .     S
O5    C62    1.19942       .     S
C62   O5     1.19942       .     S
O6    C69    1.23579       .     S
C69   O6     1.23579       .     S
O7    C69    1.31862       .     S
C69   O7     1.31862       .     S
O7    H89    0.81989       .     S
H89   O7     0.81989       .     S
O8    C76    1.29428   1_556     S
C76   O8     1.29428   1_554     S
O8    H90    0.82020       .     S
H90   O8     0.82020       .     S
O9    C76    1.24197       .     S
C76   O9     1.24197       .     S
O10   C83    1.22022       .     S
C83   O10    1.22022       .     S
O11   C83    1.27483       .     S
C83   O11    1.27483       .     S
O11   H91    0.82017       .     S
H91   O11    0.82017       .     S
C12   C13    1.19484       .     S
C13   C12    1.19484       .     S
C12   C41    1.36631       .     S
C41   C12    1.36631       .     S
C13   C14    1.42937       .     S
C14   C13    1.42937       .     S
C14   C15    1.38574       .     S
C15   C14    1.38574       .     S
C14   C19    1.41971   1_554     S
C19   C14    1.41970   1_556     S
C15   C16    1.39921       .     S
C16   C15    1.39921       .     S
C15   H86    0.93022       .     S
H86   C15    0.93022       .     S
C16   C17    1.40979       .     S
C17   C16    1.40979       .     S
C16   C42    1.48308       .     S
C42   C16    1.48308       .     S
C17   C18    1.38430   1_554     S
C18   C17    1.38430   1_556     S
C17   C49    1.49705       .     S
C49   C17    1.49705       .     S
C18   C19    1.40707       .     S
C19   C18    1.40707       .     S
C18   H88    0.93008       .     S
H88   C18    0.93008       .     S
C19   C20    1.42702       .     S
C20   C19    1.42702       .     S
C20   C21    1.20062       .     S
C21   C20    1.20062       .     S
C21   C22    1.37168       .     S
C22   C21    1.37168       .     S
C22   C23    1.20066       .     S
C23   C22    1.20066       .     S
C23   C24    1.42458   1_565     S
C24   C23    1.42458   1_545     S
C24   C25    1.40523       .     S
C25   C24    1.40523       .     S
C24   C29    1.39368       .     S
C29   C24    1.39368       .     S
C25   C26    1.37657       .     S
C26   C25    1.37657       .     S
C25   H92    0.92976       .     S
H92   C25    0.92976       .     S
C26   C27    1.41640       .     S
C27   C26    1.41640       .     S
C26   C56    1.48919       .     S
C56   C26    1.48919       .     S
C27   C28    1.39440       .     S
C28   C27    1.39440       .     S
C27   C63    1.48538       .     S
C63   C27    1.48538       .     S
C28   C29    1.39407       .     S
C29   C28    1.39407       .     S
C28   H93    0.92978       .     S
H93   C28    0.92978       .     S
C29   C30    1.43116       .     S
C30   C29    1.43116       .     S
C30   C31    1.20721       .     S
C31   C30    1.20721       .     S
C31   C32    1.36260       .     S
C32   C31    1.36260       .     S
C32   C33    1.20346       .     S
C33   C32    1.20346       .     S
C33   C34    1.42647       .     S
C34   C33    1.42647       .     S
C34   C35    1.39764   1_455     S
C35   C34    1.39764   1_655     S
C34   C39    1.41191   1_556     S
C39   C34    1.41191   1_554     S
C35   C36    1.39913   1_556     S
C36   C35    1.39913   1_554     S
C35   H94    0.92998       .     S
H94   C35    0.92998       .     S
C36   C37    1.40031       .     S
C37   C36    1.40031       .     S
C36   C70    1.49065       .     S
C70   C36    1.49065       .     S
C37   C38    1.40111   1_655     S
C38   C37    1.40111   1_455     S
C37   C77    1.48972       .     S
C77   C37    1.48972       .     S
C38   C39    1.39627       .     S
C39   C38    1.39627       .     S
C38   H95    0.92994       .     S
H95   C38    0.92994       .     S
C39   C40    1.42844       .     S
C40   C39    1.42844       .     S
C40   C41    1.20254   1_545     S
C41   C40    1.20254   1_565     S
C42   C43    1.39483       .     S
C43   C42    1.39483       .     S
C42   C47    1.39546       .     S
C47   C42    1.39546       .     S
C43   C44    1.39586       .     S
C44   C43    1.39586       .     S
C43   H96    0.92991       .     S
H96   C43    0.92991       .     S
C44   C45    1.39841       .     S
C45   C44    1.39841       .     S
C44   H97    0.93043       .     S
H97   C44    0.93043       .     S
C45   C46    1.36500       .     S
C46   C45    1.36500       .     S
C45   C48    1.49360       .     S
C48   C45    1.49360       .     S
C46   C47    1.38699       .     S
C47   C46    1.38699       .     S
C46   H98    0.93004       .     S
H98   C46    0.93004       .     S
C47   H99    0.92991       .     S
H99   C47    0.92991       .     S
C49   C50    1.39887   1_655     S
C50   C49    1.39887   1_455     S
C49   C54    1.39810   1_554     S
C54   C49    1.39810   1_556     S
C50   C51    1.38814       .     S
C51   C50    1.38814       .     S
C50   H100   0.93012   1_455     S
H100  C50    0.93012   1_655     S
C51   C52    1.38980       .     S
C52   C51    1.38980       .     S
C51   H101   0.93006       .     S
H101  C51    0.93006       .     S
C52   C53    1.38904   1_554     S
C53   C52    1.38904   1_556     S
C52   C55    1.48380       .     S
C55   C52    1.48380       .     S
C53   C54    1.39319   1_455     S
C54   C53    1.39319   1_655     S
C53   H102   0.92986       .     S
H102  C53    0.92986       .     S
C54   H103   0.92968       .     S
H103  C54    0.92968       .     S
C56   C57    1.34320       .     S
C57   C56    1.34320       .     S
C56   C61    1.38424       .     S
C61   C56    1.38424       .     S
C57   C58    1.38066       .     S
C58   C57    1.38066       .     S
C57   H104   0.93043       .     S
H104  C57    0.93043       .     S
C58   C59    1.38083       .     S
C59   C58    1.38083       .     S
C58   H105   0.92916       .     S
H105  C58    0.92916       .     S
C59   C60    1.33794       .     S
C60   C59    1.33794       .     S
C59   C62    1.50396   1_655     S
C62   C59    1.50396   1_455     S
C60   C61    1.39467       .     S
C61   C60    1.39467       .     S
C60   H106   0.92995       .     S
H106  C60    0.92995       .     S
C61   H107   0.92916       .     S
H107  C61    0.92916       .     S
C63   C64    1.38362       .     S
C64   C63    1.38362       .     S
C63   C68    1.39190       .     S
C68   C63    1.39190       .     S
C64   C65    1.39585       .     S
C65   C64    1.39585       .     S
C64   H108   0.93027       .     S
H108  C64    0.93027       .     S
C65   C66    1.37984       .     S
C66   C65    1.37984       .     S
C65   H109   0.92928       .     S
H109  C65    0.92928       .     S
C66   C67    1.37505       .     S
C67   C66    1.37505       .     S
C66   C69    1.48451       .     S
C69   C66    1.48451       .     S
C67   C68    1.38473       .     S
C68   C67    1.38473       .     S
C67   H110   0.93010       .     S
H110  C67    0.93010       .     S
C68   H111   0.92897       .     S
H111  C68    0.92897       .     S
C70   C71    1.39436       .     S
C71   C70    1.39436       .     S
C70   C75    1.39158   1_554     S
C75   C70    1.39158   1_556     S
C71   C72    1.39273       .     S
C72   C71    1.39273       .     S
C71   H112   0.93021       .     S
H112  C71    0.93021       .     S
C72   C73    1.39681       .     S
C73   C72    1.39681       .     S
C72   H113   0.93019       .     S
H113  C72    0.93019       .     S
C73   C74    1.38785   1_554     S
C74   C73    1.38785   1_556     S
C73   C76    1.48034       .     S
C76   C73    1.48034       .     S
C74   C75    1.39371       .     S
C75   C74    1.39371       .     S
C74   H114   0.92984       .     S
H114  C74    0.92984       .     S
C75   H115   0.93002       .     S
H115  C75    0.93002       .     S
C77   C78    1.42223       .     S
C78   C77    1.42223       .     S
C77   C82    1.37814       .     S
C82   C77    1.37814       .     S
C78   C79    1.36953       .     S
C79   C78    1.36953       .     S
C78   H116   0.92987       .     S
H116  C78    0.92987       .     S
C79   C80    1.37861       .     S
C80   C79    1.37861       .     S
C79   H117   0.93017       .     S
H117  C79    0.93017       .     S
C80   C81    1.42273       .     S
C81   C80    1.42273       .     S
C80   C83    1.49104       .     S
C83   C80    1.49104       .     S
C81   C82    1.37503       .     S
C82   C81    1.37503       .     S
C81   H118   0.93025       .     S
H118  C81    0.93025       .     S
C82   H119   0.93022       .     S
H119  C82    0.93022       .     S
O120  C122   1.20345       .     S
C122  O120   1.20345       .     S
N121  C122   1.37252       .     S
C122  N121   1.37252       .     S
N121  C123   1.41656       .     S
C123  N121   1.41656       .     S
N121  C124   1.48176   1_455     S
C124  N121   1.48176   1_655     S
C122  H125   0.93112       .     S
H125  C122   0.93112       .     S
C123  H126   0.95956       .     S
H126  C123   0.95956       .     S
C123  H127   0.96050   1_455     S
H127  C123   0.96050   1_655     S
C123  H128   0.96050       .     S
H128  C123   0.96050       .     S
C124  H129   0.95964       .     S
H129  C124   0.95964       .     S
C124  H130   0.95992       .     S
H130  C124   0.95992       .     S
C124  H131   0.96044       .     S
H131  C124   0.96044       .     S
O132  C134   1.18470       .     S
C134  O132   1.18470       .     S
N133  C134   1.34023       .     S
C134  N133   1.34023       .     S
N133  C135   1.42134       .     S
C135  N133   1.42134       .     S
N133  C136   1.45622       .     S
C136  N133   1.45622       .     S
C134  H137   0.92999   1_655     S
H137  C134   0.92999   1_455     S
C135  H138   0.95924       .     S
H138  C135   0.95924       .     S
C135  H139   0.95999       .     S
H139  C135   0.95999       .     S
C135  H140   0.96008       .     S
H140  C135   0.96008       .     S
C136  H141   0.96015       .     S
H141  C136   0.96015       .     S
C136  H142   0.95992       .     S
H142  C136   0.95992       .     S
C136  H143   0.95963       .     S
H143  C136   0.95963       .     S
O144  C146   1.15385       .     S
C146  O144   1.15385       .     S
N145  C146   1.28922       .     S
C146  N145   1.28922       .     S
N145  C147   1.46387       .     S
C147  N145   1.46387       .     S
N145  C148   1.42881       .     S
C148  N145   1.42881       .     S
C146  H149   0.93013       .     S
H149  C146   0.93013       .     S
C147  H150   0.96053       .     S
H150  C147   0.96053       .     S
C147  H151   0.96089       .     S
H151  C147   0.96089       .     S
C147  H152   0.95944       .     S
H152  C147   0.95944       .     S
C148  H153   0.95940       .     S
H153  C148   0.95940       .     S
C148  H154   0.95999       .     S
H154  C148   0.95999       .     S
C148  H155   0.96002       .     S
H155  C148   0.96002       .     S
O156  C158   1.11745       .     S
C158  O156   1.11745       .     S
N157  C158   1.35905       .     S
C158  N157   1.35905       .     S
N157  C159   1.45087       .     S
C159  N157   1.45087       .     S
N157  C160   1.33673       .     S
C160  N157   1.33673       .     S
C158  H161   0.92990       .     S
H161  C158   0.92990       .     S
C159  H162   0.95926       .     S
H162  C159   0.95926       .     S
C159  H163   0.96065       .     S
H163  C159   0.96065       .     S
C159  H164   0.95991       .     S
H164  C159   0.95991       .     S
C160  H165   0.95988       .     S
H165  C160   0.95988       .     S
C160  H166   0.95982       .     S
H166  C160   0.95982       .     S
C160  H167   0.96060       .     S
H167  C160   0.96060       .     S
O168  C170   1.31292       .     S
C170  O168   1.31292       .     S
N169  C170   1.36415       .     S
C170  N169   1.36415       .     S
N169  C171   1.52643       .     S
C171  N169   1.52643       .     S
N169  C172   1.28407       .     S
C172  N169   1.28407       .     S
C170  H173   0.92972       .     S
H173  C170   0.92972       .     S
C171  H174   0.96008       .     S
H174  C171   0.96008       .     S
C171  H175   0.96070       .     S
H175  C171   0.96070       .     S
C171  H176   0.95972       .     S
H176  C171   0.95972       .     S
C172  H177   0.95913       .     S
H177  C172   0.95913       .     S
C172  H178   0.96042       .     S
H178  C172   0.96042       .     S
C172  H179   0.95936       .     S
H179  C172   0.95936       .     S
O180  C182   1.15955       .     S
C182  O180   1.15955       .     S
N181  C182   1.30002       .     S
C182  N181   1.30002       .     S
N181  C183   1.38748       .     S
C183  N181   1.38748       .     S
N181  C184   1.46224       .     S
C184  N181   1.46224       .     S
C182  H185   0.92992       .     S
H185  C182   0.92992       .     S
C183  H186   0.96007       .     S
H186  C183   0.96007       .     S
C183  H187   0.96059       .     S
H187  C183   0.96059       .     S
C183  H188   0.95970       .     S
H188  C183   0.95970       .     S
C184  H189   0.96033       .     S
H189  C184   0.96033       .     S
C184  H190   0.95999       .     S
H190  C184   0.95999       .     S
C184  H191   0.96012       .     S
H191  C184   0.96012       .     S
O192  C194   1.22598       .     S
C194  O192   1.22598       .     S
N193  C194   1.34700       .     S
C194  N193   1.34700       .     S
N193  C195   1.47132       .     S
C195  N193   1.47132       .     S
N193  C196   1.54249       .     S
C196  N193   1.54249       .     S
C194  H197   0.92971       .     S
H197  C194   0.92971       .     S
C195  H198   0.95983       .     S
H198  C195   0.95983       .     S
C195  H199   0.96078       .     S
H199  C195   0.96078       .     S
C195  H200   0.96020       .     S
H200  C195   0.96020       .     S
C196  H201   0.96058       .     S
H201  C196   0.96058       .     S
C196  H202   0.96005       .     S
H202  C196   0.96005       .     S
C196  H203   0.96002       .     S
H203  C196   0.96002       .     S
O180  H84    1.70346       .     S
H84   O180   1.70346       .     S
O9    H85    1.81768       .     S
H85   O9     1.81768       .     S
O144  H87    1.78754       .     S
H87   O144   1.78754       .     S
O168  H89    1.82524       .     S
H89   O168   1.82524       .     S
O3    H90    1.79801       .     S
H90   O3     1.79801       .     S
O156  H91    1.79203       .     S
H91   O156   1.79203       .     S
C48   O0     1.21716       .     S
O0    C48    1.21716       .     S
C48   O1     1.28462       .     S
O1    C48    1.28462       .     S
H84   O1     0.82000       .     S
O1    H84    0.82000       .     S
C55   O2     1.29068       .     S
O2    C55    1.29068       .     S
H85   O2     0.82002       .     S
O2    H85    0.82002       .     S
C55   O3     1.23743   1_554     S
O3    C55    1.23743   1_556     S
C62   O4     1.31495       .     S
O4    C62    1.31495       .     S
H87   O4     0.81975       .     S
O4    H87    0.81975       .     S
C62   O5     1.19942       .     S
O5    C62    1.19942       .     S
C69   O6     1.23579       .     S
O6    C69    1.23579       .     S
C69   O7     1.31862       .     S
O7    C69    1.31862       .     S
H89   O7     0.81989       .     S
O7    H89    0.81989       .     S
C76   O8     1.29428   1_554     S
O8    C76    1.29428   1_556     S
H90   O8     0.82020       .     S
O8    H90    0.82020       .     S
C76   O9     1.24197       .     S
O9    C76    1.24197       .     S
C83   O10    1.22022       .     S
O10   C83    1.22022       .     S
C83   O11    1.27483       .     S
O11   C83    1.27483       .     S
H91   O11    0.82017       .     S
O11   H91    0.82017       .     S
C13   C12    1.19484       .     S
C12   C13    1.19484       .     S
C41   C12    1.36631       .     S
C12   C41    1.36631       .     S
C14   C13    1.42937       .     S
C13   C14    1.42937       .     S
C15   C14    1.38574       .     S
C14   C15    1.38574       .     S
C19   C14    1.41970   1_556     S
C14   C19    1.41971   1_554     S
C16   C15    1.39921       .     S
C15   C16    1.39921       .     S
H86   C15    0.93022       .     S
C15   H86    0.93022       .     S
C17   C16    1.40979       .     S
C16   C17    1.40979       .     S
C42   C16    1.48308       .     S
C16   C42    1.48308       .     S
C18   C17    1.38430   1_556     S
C17   C18    1.38430   1_554     S
C49   C17    1.49705       .     S
C17   C49    1.49705       .     S
C19   C18    1.40707       .     S
C18   C19    1.40707       .     S
H88   C18    0.93008       .     S
C18   H88    0.93008       .     S
C20   C19    1.42702       .     S
C19   C20    1.42702       .     S
C21   C20    1.20062       .     S
C20   C21    1.20062       .     S
C22   C21    1.37168       .     S
C21   C22    1.37168       .     S
C23   C22    1.20066       .     S
C22   C23    1.20066       .     S
C24   C23    1.42458   1_545     S
C23   C24    1.42458   1_565     S
C25   C24    1.40523       .     S
C24   C25    1.40523       .     S
C29   C24    1.39368       .     S
C24   C29    1.39368       .     S
C26   C25    1.37657       .     S
C25   C26    1.37657       .     S
H92   C25    0.92976       .     S
C25   H92    0.92976       .     S
C27   C26    1.41640       .     S
C26   C27    1.41640       .     S
C56   C26    1.48919       .     S
C26   C56    1.48919       .     S
C28   C27    1.39440       .     S
C27   C28    1.39440       .     S
C63   C27    1.48538       .     S
C27   C63    1.48538       .     S
C29   C28    1.39407       .     S
C28   C29    1.39407       .     S
H93   C28    0.92978       .     S
C28   H93    0.92978       .     S
C30   C29    1.43116       .     S
C29   C30    1.43116       .     S
C31   C30    1.20721       .     S
C30   C31    1.20721       .     S
C32   C31    1.36260       .     S
C31   C32    1.36260       .     S
C33   C32    1.20346       .     S
C32   C33    1.20346       .     S
C34   C33    1.42647       .     S
C33   C34    1.42647       .     S
C35   C34    1.39764   1_655     S
C34   C35    1.39764   1_455     S
C39   C34    1.41191   1_554     S
C34   C39    1.41191   1_556     S
C36   C35    1.39913   1_554     S
C35   C36    1.39913   1_556     S
H94   C35    0.92998       .     S
C35   H94    0.92998       .     S
C37   C36    1.40031       .     S
C36   C37    1.40031       .     S
C70   C36    1.49065       .     S
C36   C70    1.49065       .     S
C38   C37    1.40111   1_455     S
C37   C38    1.40111   1_655     S
C77   C37    1.48972       .     S
C37   C77    1.48972       .     S
C39   C38    1.39627       .     S
C38   C39    1.39627       .     S
H95   C38    0.92994       .     S
C38   H95    0.92994       .     S
C40   C39    1.42844       .     S
C39   C40    1.42844       .     S
C41   C40    1.20254   1_565     S
C40   C41    1.20254   1_545     S
C43   C42    1.39483       .     S
C42   C43    1.39483       .     S
C47   C42    1.39546       .     S
C42   C47    1.39546       .     S
C44   C43    1.39586       .     S
C43   C44    1.39586       .     S
H96   C43    0.92991       .     S
C43   H96    0.92991       .     S
C45   C44    1.39841       .     S
C44   C45    1.39841       .     S
H97   C44    0.93043       .     S
C44   H97    0.93043       .     S
C46   C45    1.36500       .     S
C45   C46    1.36500       .     S
C48   C45    1.49360       .     S
C45   C48    1.49360       .     S
C47   C46    1.38699       .     S
C46   C47    1.38699       .     S
H98   C46    0.93004       .     S
C46   H98    0.93004       .     S
H99   C47    0.92991       .     S
C47   H99    0.92991       .     S
C50   C49    1.39887   1_455     S
C49   C50    1.39887   1_655     S
C54   C49    1.39810   1_556     S
C49   C54    1.39810   1_554     S
C51   C50    1.38814       .     S
C50   C51    1.38814       .     S
H100  C50    0.93012   1_655     S
C50   H100   0.93012   1_455     S
C52   C51    1.38980       .     S
C51   C52    1.38980       .     S
H101  C51    0.93006       .     S
C51   H101   0.93006       .     S
C53   C52    1.38904   1_556     S
C52   C53    1.38904   1_554     S
C55   C52    1.48380       .     S
C52   C55    1.48380       .     S
C54   C53    1.39319   1_655     S
C53   C54    1.39319   1_455     S
H102  C53    0.92986       .     S
C53   H102   0.92986       .     S
H103  C54    0.92968       .     S
C54   H103   0.92968       .     S
C57   C56    1.34320       .     S
C56   C57    1.34320       .     S
C61   C56    1.38424       .     S
C56   C61    1.38424       .     S
C58   C57    1.38066       .     S
C57   C58    1.38066       .     S
H104  C57    0.93043       .     S
C57   H104   0.93043       .     S
C59   C58    1.38083       .     S
C58   C59    1.38083       .     S
H105  C58    0.92916       .     S
C58   H105   0.92916       .     S
C60   C59    1.33794       .     S
C59   C60    1.33794       .     S
C62   C59    1.50396   1_455     S
C59   C62    1.50396   1_655     S
C61   C60    1.39467       .     S
C60   C61    1.39467       .     S
H106  C60    0.92995       .     S
C60   H106   0.92995       .     S
H107  C61    0.92916       .     S
C61   H107   0.92916       .     S
C64   C63    1.38362       .     S
C63   C64    1.38362       .     S
C68   C63    1.39190       .     S
C63   C68    1.39190       .     S
C65   C64    1.39585       .     S
C64   C65    1.39585       .     S
H108  C64    0.93027       .     S
C64   H108   0.93027       .     S
C66   C65    1.37984       .     S
C65   C66    1.37984       .     S
H109  C65    0.92928       .     S
C65   H109   0.92928       .     S
C67   C66    1.37505       .     S
C66   C67    1.37505       .     S
C69   C66    1.48451       .     S
C66   C69    1.48451       .     S
C68   C67    1.38473       .     S
C67   C68    1.38473       .     S
H110  C67    0.93010       .     S
C67   H110   0.93010       .     S
H111  C68    0.92897       .     S
C68   H111   0.92897       .     S
C71   C70    1.39436       .     S
C70   C71    1.39436       .     S
C75   C70    1.39158   1_556     S
C70   C75    1.39158   1_554     S
C72   C71    1.39273       .     S
C71   C72    1.39273       .     S
H112  C71    0.93021       .     S
C71   H112   0.93021       .     S
C73   C72    1.39681       .     S
C72   C73    1.39681       .     S
H113  C72    0.93019       .     S
C72   H113   0.93019       .     S
C74   C73    1.38785   1_556     S
C73   C74    1.38785   1_554     S
C76   C73    1.48034       .     S
C73   C76    1.48034       .     S
C75   C74    1.39371       .     S
C74   C75    1.39371       .     S
H114  C74    0.92984       .     S
C74   H114   0.92984       .     S
H115  C75    0.93002       .     S
C75   H115   0.93002       .     S
C78   C77    1.42223       .     S
C77   C78    1.42223       .     S
C82   C77    1.37814       .     S
C77   C82    1.37814       .     S
C79   C78    1.36953       .     S
C78   C79    1.36953       .     S
H116  C78    0.92987       .     S
C78   H116   0.92987       .     S
C80   C79    1.37861       .     S
C79   C80    1.37861       .     S
H117  C79    0.93017       .     S
C79   H117   0.93017       .     S
C81   C80    1.42273       .     S
C80   C81    1.42273       .     S
C83   C80    1.49104       .     S
C80   C83    1.49104       .     S
C82   C81    1.37503       .     S
C81   C82    1.37503       .     S
H118  C81    0.93025       .     S
C81   H118   0.93025       .     S
H119  C82    0.93022       .     S
C82   H119   0.93022       .     S
C122  O120   1.20345       .     S
O120  C122   1.20345       .     S
C122  N121   1.37252       .     S
N121  C122   1.37252       .     S
C123  N121   1.41656       .     S
N121  C123   1.41656       .     S
C124  N121   1.48176   1_655     S
N121  C124   1.48176   1_455     S
H125  C122   0.93112       .     S
C122  H125   0.93112       .     S
H126  C123   0.95956       .     S
C123  H126   0.95956       .     S
H127  C123   0.96050   1_655     S
C123  H127   0.96050   1_455     S
H128  C123   0.96050       .     S
C123  H128   0.96050       .     S
H129  C124   0.95964       .     S
C124  H129   0.95964       .     S
H130  C124   0.95992       .     S
C124  H130   0.95992       .     S
H131  C124   0.96044       .     S
C124  H131   0.96044       .     S
C134  O132   1.18470       .     S
O132  C134   1.18470       .     S
C134  N133   1.34023       .     S
N133  C134   1.34023       .     S
C135  N133   1.42134       .     S
N133  C135   1.42134       .     S
C136  N133   1.45622       .     S
N133  C136   1.45622       .     S
H137  C134   0.92999   1_455     S
C134  H137   0.92999   1_655     S
H138  C135   0.95924       .     S
C135  H138   0.95924       .     S
H139  C135   0.95999       .     S
C135  H139   0.95999       .     S
H140  C135   0.96008       .     S
C135  H140   0.96008       .     S
H141  C136   0.96015       .     S
C136  H141   0.96015       .     S
H142  C136   0.95992       .     S
C136  H142   0.95992       .     S
H143  C136   0.95963       .     S
C136  H143   0.95963       .     S
C146  O144   1.15385       .     S
O144  C146   1.15385       .     S
C146  N145   1.28922       .     S
N145  C146   1.28922       .     S
C147  N145   1.46387       .     S
N145  C147   1.46387       .     S
C148  N145   1.42881       .     S
N145  C148   1.42881       .     S
H149  C146   0.93013       .     S
C146  H149   0.93013       .     S
H150  C147   0.96053       .     S
C147  H150   0.96053       .     S
H151  C147   0.96089       .     S
C147  H151   0.96089       .     S
H152  C147   0.95944       .     S
C147  H152   0.95944       .     S
H153  C148   0.95940       .     S
C148  H153   0.95940       .     S
H154  C148   0.95999       .     S
C148  H154   0.95999       .     S
H155  C148   0.96002       .     S
C148  H155   0.96002       .     S
C158  O156   1.11745       .     S
O156  C158   1.11745       .     S
C158  N157   1.35905       .     S
N157  C158   1.35905       .     S
C159  N157   1.45087       .     S
N157  C159   1.45087       .     S
C160  N157   1.33673       .     S
N157  C160   1.33673       .     S
H161  C158   0.92990       .     S
C158  H161   0.92990       .     S
H162  C159   0.95926       .     S
C159  H162   0.95926       .     S
H163  C159   0.96065       .     S
C159  H163   0.96065       .     S
H164  C159   0.95991       .     S
C159  H164   0.95991       .     S
H165  C160   0.95988       .     S
C160  H165   0.95988       .     S
H166  C160   0.95982       .     S
C160  H166   0.95982       .     S
H167  C160   0.96060       .     S
C160  H167   0.96060       .     S
C170  O168   1.31292       .     S
O168  C170   1.31292       .     S
C170  N169   1.36415       .     S
N169  C170   1.36415       .     S
C171  N169   1.52643       .     S
N169  C171   1.52643       .     S
C172  N169   1.28407       .     S
N169  C172   1.28407       .     S
H173  C170   0.92972       .     S
C170  H173   0.92972       .     S
H174  C171   0.96008       .     S
C171  H174   0.96008       .     S
H175  C171   0.96070       .     S
C171  H175   0.96070       .     S
H176  C171   0.95972       .     S
C171  H176   0.95972       .     S
H177  C172   0.95913       .     S
C172  H177   0.95913       .     S
H178  C172   0.96042       .     S
C172  H178   0.96042       .     S
H179  C172   0.95936       .     S
C172  H179   0.95936       .     S
C182  O180   1.15955       .     S
O180  C182   1.15955       .     S
C182  N181   1.30002       .     S
N181  C182   1.30002       .     S
C183  N181   1.38748       .     S
N181  C183   1.38748       .     S
C184  N181   1.46224       .     S
N181  C184   1.46224       .     S
H185  C182   0.92992       .     S
C182  H185   0.92992       .     S
H186  C183   0.96007       .     S
C183  H186   0.96007       .     S
H187  C183   0.96059       .     S
C183  H187   0.96059       .     S
H188  C183   0.95970       .     S
C183  H188   0.95970       .     S
H189  C184   0.96033       .     S
C184  H189   0.96033       .     S
H190  C184   0.95999       .     S
C184  H190   0.95999       .     S
H191  C184   0.96012       .     S
C184  H191   0.96012       .     S
C194  O192   1.22598       .     S
O192  C194   1.22598       .     S
C194  N193   1.34700       .     S
N193  C194   1.34700       .     S
C195  N193   1.47132       .     S
N193  C195   1.47132       .     S
C196  N193   1.54249       .     S
N193  C196   1.54249       .     S
H197  C194   0.92971       .     S
C194  H197   0.92971       .     S
H198  C195   0.95983       .     S
C195  H198   0.95983       .     S
H199  C195   0.96078       .     S
C195  H199   0.96078       .     S
H200  C195   0.96020       .     S
C195  H200   0.96020       .     S
H201  C196   0.96058       .     S
C196  H201   0.96058       .     S
H202  C196   0.96005       .     S
C196  H202   0.96005       .     S
H203  C196   0.96002       .     S
C196  H203   0.96002       .     S
