data_I
_chemical_name_common  '/data/user2/wty/HOF/MOFDiff/mofdiff/data/test/13-2d2_dmaa'
_cell_length_a 11.87850
_cell_length_b 17.47770
_cell_length_c 24.67830
_cell_angle_alpha 104.80200
_cell_angle_beta  90.68200
_cell_angle_gamma 97.81600
_space_group_name_H-M_alt      'P 1'


loop_
_space_group_symop_operation_xyz
  'x, y, z' 

loop_
_atom_site_label
_atom_site_fract_x
_atom_site_fract_y
_atom_site_fract_z
_atom_site_type_symbol
Cl0    0.02325  0.07048  0.88837    Cl
C1      0.0203   0.0211   0.7752     C
C2      0.0677   0.0752  0.82327     C
C3      0.1524   0.1356   0.8196     C
C4      0.1867   0.1382   0.7661     C
C5      0.1425    0.083   0.7187     C
C6      0.0611   0.0263   0.7231     C
H7     0.18623  0.17407  0.85217     H
H8      0.1699  0.08545  0.68307     H
H9     0.02919  0.98784  0.69012     H
Cl10    0.3035   0.2291   0.7885    Cl
Cl11    0.2854  0.21519  0.75656    Cl
Cl12    0.9183   0.9452   0.8087    Cl
Cl13   0.90649  0.94975  0.77574    Cl
O14     0.4205  0.88839  0.95561     O
O15     0.4533  0.76144   0.9402     O
O16     0.8476   0.5343  0.92952     O
O17     0.7976  0.44824  0.98128     O
O18     0.2303  0.48243  0.51122     O
O19     0.1541  0.57976  0.57049     O
O20     0.5103  0.75006  0.83681     O
O21     0.5223  0.88379  0.86062     O
O22     0.5686   0.4548   0.8441     O
O23     0.7455   0.4246   0.8416     O
O24      0.978  0.47408  0.56205     O
O25     0.0597  0.37174  0.51309     O
C26     0.2715  0.94464  0.36326     C
C27     0.2232  0.90651  0.31969     C
C28     0.1703  0.85581  0.26852     C
C29     0.2185  0.85664  0.21743     C
C30     0.1736  0.80323    0.167     C
C31      0.077    0.747  0.16786     C
C32     0.0279  0.74727  0.21901     C
C33     0.0729  0.79975  0.26954     C
C34     0.0197   0.7988  0.32078     C
C35     0.9736   0.8013  0.36439     C
C36     0.9197  0.80542   0.4133     C
C37     0.8735  0.81004  0.45673     C
C38     0.8173  0.81301   0.5079     C
C39     0.7128   0.7659  0.50829     C
C40     0.6576  0.76631  0.55781     C
C41      0.708  0.81557  0.60902     C
C42     0.8117  0.86403   0.6088     C
C43     0.8679  0.86392  0.55926     C
C44     0.9744  0.91305  0.56017     C
C45     0.0651   0.9528  0.55935     C
C46     0.1684   0.9977  0.55836     C
C47     0.2591   0.0373  0.55744     C
C48     0.3649  0.08672  0.55691     C
C49     0.4105  0.14294  0.60565     C
C50     0.5128   0.1942  0.60654     C
C51      0.573  0.18712  0.55685     C
C52     0.5275  0.12983  0.50826     C
C53     0.4247  0.08057  0.50696     C
C54     0.3748   0.0288   0.4556     C
C55     0.3271  0.98842  0.41235     C
C56     0.2355    0.807  0.11544     C
C57     0.2664    0.881  0.10379     C
C58     0.3263   0.8861  0.05644     C
C59     0.3546   0.8167  0.02075     C
C60     0.3266    0.743  0.03266     C
C61     0.2675   0.7376  0.08012     C
C62     0.4156   0.8205  0.96894     C
C63     0.0198   0.6885  0.11686     C
C64     0.9981   0.7093  0.06714     C
C65     0.9419   0.6525  0.02146     C
C66     0.9041   0.5753  0.02516     C
C67     0.9236   0.5541  0.07449     C
C68     0.9816   0.6105  0.11988     C
C69     0.8428   0.5108  0.97708     C
C70     0.5464  0.71293  0.55331     C
C71     0.5364   0.6355  0.51909     C
C72     0.4334   0.5843   0.5141     C
C73     0.3422   0.6102  0.54428     C
C74     0.3503   0.6887  0.57784     C
C75     0.4528  0.73921  0.58175     C
C76     0.2368   0.5524  0.54066     C
C77     0.6589  0.81655  0.66433     C
C78     0.6271    0.745  0.67956     C
C79      0.587   0.7462  0.73213     C
C80      0.577   0.8183  0.77023     C
C81     0.6073   0.8902  0.75538     C
C82     0.6483   0.8886  0.70277     C
C83     0.5337   0.8206  0.82691     C
C84     0.5515  0.25307  0.66076     C
C85      0.475   0.2998  0.68959     C
C86     0.5071   0.3532  0.74163     C
C87     0.6141   0.3602    0.765     C
C88     0.6933   0.3141  0.73628     C
C89     0.6616  0.26095  0.68421     C
C90     0.6492   0.4164  0.82115     C
C91     0.6782  0.24151  0.55319     C
C92     0.6843  0.32364    0.576     C
C93     0.7819   0.3745  0.57175     C
C94     0.8738   0.3445  0.54378     C
C95     0.8681   0.2625  0.51963     C
C96       0.77  0.21135  0.52479     C
C97     0.9749   0.4017   0.5401     C
H98    0.45911  0.88686  0.92716     H
H99    0.81377  0.49764  0.90319     H
H100   0.28361   0.8945  0.21682     H
H101   0.09813  0.54338  0.56614     H
H102   0.96152  0.71042  0.21944     H
H103   0.49073  0.75554  0.87002     H
H104   0.59244  0.48512  0.87551     H
H105    0.1111  0.40904  0.51144     H
H106   0.67832  0.73265  0.47384     H
H107   0.84502  0.89799  0.64326     H
H108    0.3712  0.14671  0.63932     H
H109   0.56829  0.12439  0.47494     H
H110   0.24646  0.92805  0.12836     H
H111   0.34751  0.93642  0.04858     H
H112   0.34796  0.69629  0.00829     H
H113   0.24886  0.68742  0.08853     H
H114   0.02168  0.76239  0.06454     H
H115   0.92928  0.66661   0.9874     H
H116   0.89761  0.50147  0.07728     H
H117   0.99545  0.59578  0.15357     H
H118   0.59967  0.61729  0.49908     H
H119   0.42611  0.53173  0.49001     H
H120   0.28686  0.70715  0.59756     H
H121   0.45904  0.79267  0.60429     H
H122   0.63314  0.69533  0.65363     H
H123   0.56611  0.69741  0.74218     H
H124   0.59984  0.93976  0.78114     H
H125   0.66939  0.93748  0.69281     H
H126   0.40035  0.29554  0.67382     H
H127   0.45409  0.38502  0.76104     H
H128   0.76795  0.31901  0.75222     H
H129   0.71506  0.22984  0.66449     H
H130   0.62123  0.34478   0.5945     H
H131   0.78612  0.43034  0.58808     H
H132   0.93022  0.24172  0.49994     H
H133   0.76579  0.15544  0.50878     H
Cl134  0.24661  0.39166  0.62205    Cl
Cl135  0.42856  0.54703  0.65776    Cl
Cl136   0.3461  0.56602   0.8747    Cl
C137    0.2792   0.4391  0.69214     C
C138    0.3571   0.5072  0.70776     C
C139    0.3808   0.5476  0.76411     C
C140     0.323   0.5163  0.80459     C
C141    0.2485   0.4461  0.78896     C
C142    0.2256   0.4073  0.73218     C
H143   0.43465  0.59494   0.7747     H
H144   0.21255  0.42386   0.8168     H
H145   0.17321  0.35933   0.7213     H
Cl146   0.9121   0.3154    0.096    Cl
Cl147  0.74759  0.29583  0.26354    Cl
C148     0.876   0.3387   0.1851     C
C149    0.8483   0.3571   0.2408     C
C150    0.9083    0.427   0.2781     C
C151    0.9845   0.4738   0.2557     C
C152     0.011   0.4554   0.2009     C
C153    0.9584   0.3911   0.1662     C
H154   0.89563  0.44028  0.31715     H
H155   0.06774  0.48946  0.18804     H
H156   0.97564   0.3792  0.12771     H
Cl157   0.8075  0.25435  0.13663    Cl
Cl158   0.7716   0.2247   0.1769    Cl
Cl159  0.05202  0.56233  0.30357    Cl
Cl160   0.0688   0.5541   0.2701    Cl
O161    0.5936  0.54048   0.9423     O
N162    0.6351   0.6544  0.00979     N
C163    0.6308    0.613  0.95588     C
C164    0.6752    0.656   0.9129     C
C165     0.597   0.6129   0.0523     C
C166    0.6739    0.739     0.03     C
H167   0.63299  0.70071  0.91385     H
H168   0.66538   0.6188  0.87545     H
H169    0.7562  0.67644  0.92151     H
H170   0.56395  0.55767  0.03386     H
H171   0.53956  0.64045  0.07446     H
H172   0.66201  0.61269  0.07709     H
H173    0.6145  0.76509  0.05151     H
H174   0.69048   0.7617  0.99805     H
H175   0.74296  0.74757  0.05414     H
loop_
_geom_bond_atom_site_label_1
_geom_bond_atom_site_label_2
_geom_bond_distance
_geom_bond_site_symmetry_2
_ccdc_geom_bond_type
H98   O21    1.80500       .     S
O21   H98    1.80500       .     S
H99   O23    1.81525       .     S
O23   H99    1.81525       .     S
H101  O24    1.72553   1_455     S
O24   H101   1.72553   1_655     S
H103  O15    1.77410       .     S
O15   H103   1.77410       .     S
H104  O161   1.68348       .     S
O161  H104   1.68348       .     S
H105  O18    1.77761       .     S
O18   H105   1.77761       .     S
Cl0   C2     1.71542       .     S
C2    Cl0    1.71542       .     S
C1    C2     1.37277       .     S
C2    C1     1.37277       .     S
C1    C6     1.39958       .     S
C6    C1     1.39958       .     S
C1    Cl13   1.71268   1_445     S
Cl13  C1     1.71268   1_665     S
C2    C3     1.37732       .     S
C3    C2     1.37732       .     S
C3    C4     1.39630       .     S
C4    C3     1.39630       .     S
C3    H7     0.94989       .     S
H7    C3     0.94989       .     S
C4    C5     1.35858       .     S
C5    C4     1.35858       .     S
C4    Cl10   1.92042       .     S
Cl10  C4     1.92042       .     S
C4    Cl11   1.72626       .     S
Cl11  C4     1.72626       .     S
C5    C6     1.31363       .     S
C6    C5     1.31363       .     S
C5    H8     0.95035       .     S
H8    C5     0.95035       .     S
C6    H9     0.94961   1_545     S
H9    C6     0.94961   1_565     S
Cl10  Cl11   0.78132       .     S
Cl11  Cl10   0.78132       .     S
Cl12  Cl13   0.84911       .     S
Cl13  Cl12   0.84911       .     S
O14   C62    1.30409       .     S
C62   O14    1.30409       .     S
O14   H98    0.83988       .     S
H98   O14    0.83988       .     S
O15   C62    1.23624       .     S
C62   O15    1.23624       .     S
O16   C69    1.33830       .     S
C69   O16    1.33830       .     S
O16   H99    0.83980       .     S
H99   O16    0.83980       .     S
O17   C69    1.18072       .     S
C69   O17    1.18072       .     S
O18   C76    1.24432       .     S
C76   O18    1.24432       .     S
O19   C76    1.30411       .     S
C76   O19    1.30411       .     S
O19   H101   0.84040       .     S
H101  O19    0.84040       .     S
O20   C83    1.31120       .     S
C83   O20    1.31120       .     S
O20   H103   0.83987       .     S
H103  O20    0.83987       .     S
O21   C83    1.22639       .     S
C83   O21    1.22639       .     S
O22   C90    1.29664       .     S
C90   O22    1.29664       .     S
O22   H104   0.84020       .     S
H104  O22    0.84020       .     S
O23   C90    1.22002       .     S
C90   O23    1.22002       .     S
O24   C97    1.23767       .     S
C97   O24    1.23767       .     S
O25   C97    1.30929   1_455     S
C97   O25    1.30929   1_655     S
O25   H105   0.83984       .     S
H105  O25    0.83984       .     S
C26   C27    1.20192       .     S
C27   C26    1.20192       .     S
C26   C55    1.36351       .     S
C55   C26    1.36351       .     S
C27   C28    1.42569       .     S
C28   C27    1.42569       .     S
C28   C29    1.39354       .     S
C29   C28    1.39354       .     S
C28   C33    1.41569       .     S
C33   C28    1.41569       .     S
C29   C30    1.39996       .     S
C30   C29    1.39996       .     S
C29   H100   0.94996       .     S
H100  C29    0.94996       .     S
C30   C31    1.40978       .     S
C31   C30    1.40978       .     S
C30   C56    1.48861       .     S
C56   C30    1.48861       .     S
C31   C32    1.39600       .     S
C32   C31    1.39600       .     S
C31   C63    1.49140       .     S
C63   C31    1.49140       .     S
C32   C33    1.39585       .     S
C33   C32    1.39585       .     S
C32   H102   0.94985   1_455     S
H102  C32    0.94985   1_655     S
C33   C34    1.42321       .     S
C34   C33    1.42321       .     S
C34   C35    1.20687   1_455     S
C35   C34    1.20687   1_655     S
C35   C36    1.36328       .     S
C36   C35    1.36328       .     S
C36   C37    1.19926       .     S
C37   C36    1.19926       .     S
C37   C38    1.42793       .     S
C38   C37    1.42793       .     S
C38   C39    1.39471       .     S
C39   C38    1.39471       .     S
C38   C43    1.42114       .     S
C43   C38    1.42114       .     S
C39   C40    1.39259       .     S
C40   C39    1.39259       .     S
C39   H106   0.95015       .     S
H106  C39    0.95015       .     S
C40   C41    1.40806       .     S
C41   C40    1.40806       .     S
C40   C70    1.49529       .     S
C70   C40    1.49529       .     S
C41   C42    1.39766       .     S
C42   C41    1.39766       .     S
C41   C77    1.48771       .     S
C77   C41    1.48771       .     S
C42   C43    1.39960       .     S
C43   C42    1.39960       .     S
C42   H107   0.94991       .     S
H107  C42    0.94991       .     S
C43   C44    1.42556       .     S
C44   C43    1.42556       .     S
C44   C45    1.20330   1_655     S
C45   C44    1.20330   1_455     S
C45   C46    1.36773       .     S
C46   C45    1.36773       .     S
C46   C47    1.20253   1_565     S
C47   C46    1.20253   1_545     S
C47   C48    1.42708       .     S
C48   C47    1.42708       .     S
C48   C49    1.39338       .     S
C49   C48    1.39338       .     S
C48   C53    1.41758       .     S
C53   C48    1.41758       .     S
C49   C50    1.40463       .     S
C50   C49    1.40463       .     S
C49   H108   0.94990       .     S
H108  C49    0.94990       .     S
C50   C51    1.41343       .     S
C51   C50    1.41343       .     S
C50   C84    1.48783       .     S
C84   C50    1.48783       .     S
C51   C52    1.39874       .     S
C52   C51    1.39874       .     S
C51   C91    1.48217       .     S
C91   C51    1.48217       .     S
C52   C53    1.39010       .     S
C53   C52    1.39010       .     S
C52   H109   0.94975       .     S
H109  C52    0.94975       .     S
C53   C54    1.42365       .     S
C54   C53    1.42365       .     S
C54   C55    1.20428   1_545     S
C55   C54    1.20428   1_565     S
C56   C57    1.39769       .     S
C57   C56    1.39769       .     S
C56   C61    1.40305       .     S
C61   C56    1.40305       .     S
C57   C58    1.39119       .     S
C58   C57    1.39119       .     S
C57   H110   0.94953       .     S
H110  C57    0.94953       .     S
C58   C59    1.39000       .     S
C59   C58    1.39000       .     S
C58   H111   0.95008       .     S
H111  C58    0.95008       .     S
C59   C60    1.39122       .     S
C60   C59    1.39122       .     S
C59   C62    1.48881   1_554     S
C62   C59    1.48881   1_556     S
C60   C61    1.38980       .     S
C61   C60    1.38980       .     S
C60   H112   0.94955       .     S
H112  C60    0.94955       .     S
C61   H113   0.95004       .     S
H113  C61    0.95004       .     S
C63   C64    1.39643   1_455     S
C64   C63    1.39643   1_655     S
C63   C68    1.39800   1_455     S
C68   C63    1.39800   1_655     S
C64   C65    1.38997       .     S
C65   C64    1.38997       .     S
C64   H114   0.95064   1_655     S
H114  C64    0.95064   1_455     S
C65   C66    1.38912       .     S
C66   C65    1.38912       .     S
C65   H115   0.95014   1_554     S
H115  C65    0.95014   1_556     S
C66   C67    1.38567       .     S
C67   C66    1.38567       .     S
C66   C69    1.51050   1_554     S
C69   C66    1.51050   1_556     S
C67   C68    1.39061       .     S
C68   C67    1.39061       .     S
C67   H116   0.94963       .     S
H116  C67    0.94963       .     S
C68   H117   0.94976       .     S
H117  C68    0.94976       .     S
C70   C71    1.38875       .     S
C71   C70    1.38875       .     S
C70   C75    1.39014       .     S
C75   C70    1.39014       .     S
C71   C72    1.39828       .     S
C72   C71    1.39828       .     S
C71   H118   0.95056       .     S
H118  C71    0.95056       .     S
C72   C73    1.38330       .     S
C73   C72    1.38330       .     S
C72   H119   0.95035       .     S
H119  C72    0.95035       .     S
C73   C74    1.39970       .     S
C74   C73    1.39970       .     S
C73   C76    1.48433       .     S
C76   C73    1.48433       .     S
C74   C75    1.39011       .     S
C75   C74    1.39011       .     S
C74   H120   0.95043       .     S
H120  C74    0.95043       .     S
C75   H121   0.95003       .     S
H121  C75    0.95003       .     S
C77   C78    1.40101       .     S
C78   C77    1.40101       .     S
C77   C82    1.39180       .     S
C82   C77    1.39180       .     S
C78   C79    1.38345       .     S
C79   C78    1.38345       .     S
C78   H122   0.94997       .     S
H122  C78    0.94997       .     S
C79   C80    1.38712       .     S
C80   C79    1.38712       .     S
C79   H123   0.94986       .     S
H123  C79    0.94986       .     S
C80   C81    1.39944       .     S
C81   C80    1.39944       .     S
C80   C83    1.48887       .     S
C83   C80    1.48887       .     S
C81   C82    1.38702       .     S
C82   C81    1.38702       .     S
C81   H124   0.95033       .     S
H124  C81    0.95033       .     S
C82   H125   0.95056       .     S
H125  C82    0.95056       .     S
C84   C85    1.38540       .     S
C85   C84    1.38540       .     S
C84   C89    1.39876       .     S
C89   C84    1.39876       .     S
C85   C86    1.39459       .     S
C86   C85    1.39459       .     S
C85   H126   0.94990       .     S
H126  C85    0.94990       .     S
C86   C87    1.36647       .     S
C87   C86    1.36647       .     S
C86   H127   0.94950       .     S
H127  C86    0.94950       .     S
C87   C88    1.40244       .     S
C88   C87    1.40244       .     S
C87   C90    1.49605       .     S
C90   C87    1.49605       .     S
C88   C89    1.39261       .     S
C89   C88    1.39261       .     S
C88   H128   0.94981       .     S
H128  C88    0.94981       .     S
C89   H129   0.94963       .     S
H129  C89    0.94963       .     S
C91   C92    1.39301       .     S
C92   C91    1.39301       .     S
C91   C96    1.39424       .     S
C96   C91    1.39424       .     S
C92   C93    1.38401       .     S
C93   C92    1.38401       .     S
C92   H130   0.95050       .     S
H130  C92    0.95050       .     S
C93   C94    1.38986       .     S
C94   C93    1.38986       .     S
C93   H131   0.95008       .     S
H131  C93    0.95008       .     S
C94   C95    1.39641       .     S
C95   C94    1.39641       .     S
C94   C97    1.47389       .     S
C97   C94    1.47389       .     S
C95   C96    1.39702       .     S
C96   C95    1.39702       .     S
C95   H132   0.95066       .     S
H132  C95    0.95066       .     S
C96   H133   0.94997       .     S
H133  C96    0.94997       .     S
Cl134 C137   1.73008       .     S
C137  Cl134  1.73008       .     S
Cl135 C138   1.74092       .     S
C138  Cl135  1.74092       .     S
Cl136 C140   1.72616       .     S
C140  Cl136  1.72616       .     S
C137  C138   1.37077       .     S
C138  C137   1.37077       .     S
C137  C142   1.37477       .     S
C142  C137   1.37477       .     S
C138  C139   1.39519       .     S
C139  C138   1.39519       .     S
C139  C140   1.40072       .     S
C140  C139   1.40072       .     S
C139  H143   0.95059       .     S
H143  C139   0.95059       .     S
C140  C141   1.37551       .     S
C141  C140   1.37551       .     S
C141  C142   1.39734       .     S
C142  C141   1.39734       .     S
C141  H144   0.95067       .     S
H144  C141   0.95067       .     S
C142  H145   0.94941       .     S
H145  C142   0.94941       .     S
Cl146 C153   1.91376       .     S
C153  Cl146  1.91376       .     S
Cl146 H156   1.31781       .     S
H156  Cl146  1.31781       .     S
Cl146 Cl157  1.97570       .     S
Cl157 Cl146  1.97570       .     S
Cl147 C149   1.69333       .     S
C149  Cl147  1.69333       .     S
Cl147 Cl158  2.22513       .     S
Cl158 Cl147  2.22513       .     S
C148  C149   1.38378       .     S
C149  C148   1.38378       .     S
C148  C153   1.41409       .     S
C153  C148   1.41409       .     S
C148  Cl157  1.73660       .     S
Cl157 C148   1.73660       .     S
C149  C150   1.42153       .     S
C150  C149   1.42153       .     S
C150  C151   1.35480       .     S
C151  C150   1.35480       .     S
C150  H154   0.95073       .     S
H154  C150   0.95073       .     S
C151  C152   1.35899   1_655     S
C152  C151   1.35899   1_455     S
C151  Cl159  1.77170   1_655     S
Cl159 C151   1.77170   1_455     S
C151  Cl160  1.56625   1_655     S
Cl160 C151   1.56625   1_455     S
C152  C153   1.30047   1_455     S
C153  C152   1.30047   1_655     S
C152  H155   0.94966       .     S
H155  C152   0.94966       .     S
C153  H156   0.95011       .     S
H156  C153   0.95011       .     S
Cl157 Cl158  1.28497       .     S
Cl158 Cl157  1.28497       .     S
Cl159 Cl160  0.83287       .     S
Cl160 Cl159  0.83287       .     S
O161  C163   1.24144       .     S
C163  O161   1.24144       .     S
N162  C163   1.33888   1_554     S
C163  N162   1.33888   1_556     S
N162  C165   1.46366       .     S
C165  N162   1.46366       .     S
N162  C166   1.44216       .     S
C166  N162   1.44216       .     S
C163  C164   1.51024       .     S
C164  C163   1.51024       .     S
C164  H167   0.97982       .     S
H167  C164   0.97982       .     S
C164  H168   0.97993       .     S
H168  C164   0.97993       .     S
C164  H169   0.98050       .     S
H169  C164   0.98050       .     S
C165  H170   0.98042       .     S
H170  C165   0.98042       .     S
C165  H171   0.97987       .     S
H171  C165   0.97987       .     S
C165  H172   0.98045       .     S
H172  C165   0.98045       .     S
C166  H173   0.97995       .     S
H173  C166   0.97995       .     S
C166  H174   0.97988   1_554     S
H174  C166   0.97988   1_556     S
C166  H175   0.97961       .     S
H175  C166   0.97961       .     S
O21   H98    1.80500       .     S
H98   O21    1.80500       .     S
O23   H99    1.81525       .     S
H99   O23    1.81525       .     S
O24   H101   1.72553   1_655     S
H101  O24    1.72553   1_455     S
O15   H103   1.77410       .     S
H103  O15    1.77410       .     S
O161  H104   1.68348       .     S
H104  O161   1.68348       .     S
O18   H105   1.77761       .     S
H105  O18    1.77761       .     S
C2    Cl0    1.71542       .     S
Cl0   C2     1.71542       .     S
C2    C1     1.37277       .     S
C1    C2     1.37277       .     S
C6    C1     1.39958       .     S
C1    C6     1.39958       .     S
Cl13  C1     1.71268   1_665     S
C1    Cl13   1.71268   1_445     S
C3    C2     1.37732       .     S
C2    C3     1.37732       .     S
C4    C3     1.39630       .     S
C3    C4     1.39630       .     S
H7    C3     0.94989       .     S
C3    H7     0.94989       .     S
C5    C4     1.35858       .     S
C4    C5     1.35858       .     S
Cl10  C4     1.92042       .     S
C4    Cl10   1.92042       .     S
Cl11  C4     1.72626       .     S
C4    Cl11   1.72626       .     S
C6    C5     1.31363       .     S
C5    C6     1.31363       .     S
H8    C5     0.95035       .     S
C5    H8     0.95035       .     S
H9    C6     0.94961   1_565     S
C6    H9     0.94961   1_545     S
Cl11  Cl10   0.78132       .     S
Cl10  Cl11   0.78132       .     S
Cl13  Cl12   0.84911       .     S
Cl12  Cl13   0.84911       .     S
C62   O14    1.30409       .     S
O14   C62    1.30409       .     S
H98   O14    0.83988       .     S
O14   H98    0.83988       .     S
C62   O15    1.23624       .     S
O15   C62    1.23624       .     S
C69   O16    1.33830       .     S
O16   C69    1.33830       .     S
H99   O16    0.83980       .     S
O16   H99    0.83980       .     S
C69   O17    1.18072       .     S
O17   C69    1.18072       .     S
C76   O18    1.24432       .     S
O18   C76    1.24432       .     S
C76   O19    1.30411       .     S
O19   C76    1.30411       .     S
H101  O19    0.84040       .     S
O19   H101   0.84040       .     S
C83   O20    1.31120       .     S
O20   C83    1.31120       .     S
H103  O20    0.83987       .     S
O20   H103   0.83987       .     S
C83   O21    1.22639       .     S
O21   C83    1.22639       .     S
C90   O22    1.29664       .     S
O22   C90    1.29664       .     S
H104  O22    0.84020       .     S
O22   H104   0.84020       .     S
C90   O23    1.22002       .     S
O23   C90    1.22002       .     S
C97   O24    1.23767       .     S
O24   C97    1.23767       .     S
C97   O25    1.30929   1_655     S
O25   C97    1.30929   1_455     S
H105  O25    0.83984       .     S
O25   H105   0.83984       .     S
C27   C26    1.20192       .     S
C26   C27    1.20192       .     S
C55   C26    1.36351       .     S
C26   C55    1.36351       .     S
C28   C27    1.42569       .     S
C27   C28    1.42569       .     S
C29   C28    1.39354       .     S
C28   C29    1.39354       .     S
C33   C28    1.41569       .     S
C28   C33    1.41569       .     S
C30   C29    1.39996       .     S
C29   C30    1.39996       .     S
H100  C29    0.94996       .     S
C29   H100   0.94996       .     S
C31   C30    1.40978       .     S
C30   C31    1.40978       .     S
C56   C30    1.48861       .     S
C30   C56    1.48861       .     S
C32   C31    1.39600       .     S
C31   C32    1.39600       .     S
C63   C31    1.49140       .     S
C31   C63    1.49140       .     S
C33   C32    1.39585       .     S
C32   C33    1.39585       .     S
H102  C32    0.94985   1_655     S
C32   H102   0.94985   1_455     S
C34   C33    1.42321       .     S
C33   C34    1.42321       .     S
C35   C34    1.20687   1_655     S
C34   C35    1.20687   1_455     S
C36   C35    1.36328       .     S
C35   C36    1.36328       .     S
C37   C36    1.19926       .     S
C36   C37    1.19926       .     S
C38   C37    1.42793       .     S
C37   C38    1.42793       .     S
C39   C38    1.39471       .     S
C38   C39    1.39471       .     S
C43   C38    1.42114       .     S
C38   C43    1.42114       .     S
C40   C39    1.39259       .     S
C39   C40    1.39259       .     S
H106  C39    0.95015       .     S
C39   H106   0.95015       .     S
C41   C40    1.40806       .     S
C40   C41    1.40806       .     S
C70   C40    1.49529       .     S
C40   C70    1.49529       .     S
C42   C41    1.39766       .     S
C41   C42    1.39766       .     S
C77   C41    1.48771       .     S
C41   C77    1.48771       .     S
C43   C42    1.39960       .     S
C42   C43    1.39960       .     S
H107  C42    0.94991       .     S
C42   H107   0.94991       .     S
C44   C43    1.42556       .     S
C43   C44    1.42556       .     S
C45   C44    1.20330   1_455     S
C44   C45    1.20330   1_655     S
C46   C45    1.36773       .     S
C45   C46    1.36773       .     S
C47   C46    1.20253   1_545     S
C46   C47    1.20253   1_565     S
C48   C47    1.42708       .     S
C47   C48    1.42708       .     S
C49   C48    1.39338       .     S
C48   C49    1.39338       .     S
C53   C48    1.41758       .     S
C48   C53    1.41758       .     S
C50   C49    1.40463       .     S
C49   C50    1.40463       .     S
H108  C49    0.94990       .     S
C49   H108   0.94990       .     S
C51   C50    1.41343       .     S
C50   C51    1.41343       .     S
C84   C50    1.48783       .     S
C50   C84    1.48783       .     S
C52   C51    1.39874       .     S
C51   C52    1.39874       .     S
C91   C51    1.48217       .     S
C51   C91    1.48217       .     S
C53   C52    1.39010       .     S
C52   C53    1.39010       .     S
H109  C52    0.94975       .     S
C52   H109   0.94975       .     S
C54   C53    1.42365       .     S
C53   C54    1.42365       .     S
C55   C54    1.20428   1_565     S
C54   C55    1.20428   1_545     S
C57   C56    1.39769       .     S
C56   C57    1.39769       .     S
C61   C56    1.40305       .     S
C56   C61    1.40305       .     S
C58   C57    1.39119       .     S
C57   C58    1.39119       .     S
H110  C57    0.94953       .     S
C57   H110   0.94953       .     S
C59   C58    1.39000       .     S
C58   C59    1.39000       .     S
H111  C58    0.95008       .     S
C58   H111   0.95008       .     S
C60   C59    1.39122       .     S
C59   C60    1.39122       .     S
C62   C59    1.48881   1_556     S
C59   C62    1.48881   1_554     S
C61   C60    1.38980       .     S
C60   C61    1.38980       .     S
H112  C60    0.94955       .     S
C60   H112   0.94955       .     S
H113  C61    0.95004       .     S
C61   H113   0.95004       .     S
C64   C63    1.39643   1_655     S
C63   C64    1.39643   1_455     S
C68   C63    1.39800   1_655     S
C63   C68    1.39800   1_455     S
C65   C64    1.38997       .     S
C64   C65    1.38997       .     S
H114  C64    0.95064   1_455     S
C64   H114   0.95064   1_655     S
C66   C65    1.38912       .     S
C65   C66    1.38912       .     S
H115  C65    0.95014   1_556     S
C65   H115   0.95014   1_554     S
C67   C66    1.38567       .     S
C66   C67    1.38567       .     S
C69   C66    1.51050   1_556     S
C66   C69    1.51050   1_554     S
C68   C67    1.39061       .     S
C67   C68    1.39061       .     S
H116  C67    0.94963       .     S
C67   H116   0.94963       .     S
H117  C68    0.94976       .     S
C68   H117   0.94976       .     S
C71   C70    1.38875       .     S
C70   C71    1.38875       .     S
C75   C70    1.39014       .     S
C70   C75    1.39014       .     S
C72   C71    1.39828       .     S
C71   C72    1.39828       .     S
H118  C71    0.95056       .     S
C71   H118   0.95056       .     S
C73   C72    1.38330       .     S
C72   C73    1.38330       .     S
H119  C72    0.95035       .     S
C72   H119   0.95035       .     S
C74   C73    1.39970       .     S
C73   C74    1.39970       .     S
C76   C73    1.48433       .     S
C73   C76    1.48433       .     S
C75   C74    1.39011       .     S
C74   C75    1.39011       .     S
H120  C74    0.95043       .     S
C74   H120   0.95043       .     S
H121  C75    0.95003       .     S
C75   H121   0.95003       .     S
C78   C77    1.40101       .     S
C77   C78    1.40101       .     S
C82   C77    1.39180       .     S
C77   C82    1.39180       .     S
C79   C78    1.38345       .     S
C78   C79    1.38345       .     S
H122  C78    0.94997       .     S
C78   H122   0.94997       .     S
C80   C79    1.38712       .     S
C79   C80    1.38712       .     S
H123  C79    0.94986       .     S
C79   H123   0.94986       .     S
C81   C80    1.39944       .     S
C80   C81    1.39944       .     S
C83   C80    1.48887       .     S
C80   C83    1.48887       .     S
C82   C81    1.38702       .     S
C81   C82    1.38702       .     S
H124  C81    0.95033       .     S
C81   H124   0.95033       .     S
H125  C82    0.95056       .     S
C82   H125   0.95056       .     S
C85   C84    1.38540       .     S
C84   C85    1.38540       .     S
C89   C84    1.39876       .     S
C84   C89    1.39876       .     S
C86   C85    1.39459       .     S
C85   C86    1.39459       .     S
H126  C85    0.94990       .     S
C85   H126   0.94990       .     S
C87   C86    1.36647       .     S
C86   C87    1.36647       .     S
H127  C86    0.94950       .     S
C86   H127   0.94950       .     S
C88   C87    1.40244       .     S
C87   C88    1.40244       .     S
C90   C87    1.49605       .     S
C87   C90    1.49605       .     S
C89   C88    1.39261       .     S
C88   C89    1.39261       .     S
H128  C88    0.94981       .     S
C88   H128   0.94981       .     S
H129  C89    0.94963       .     S
C89   H129   0.94963       .     S
C92   C91    1.39301       .     S
C91   C92    1.39301       .     S
C96   C91    1.39424       .     S
C91   C96    1.39424       .     S
C93   C92    1.38401       .     S
C92   C93    1.38401       .     S
H130  C92    0.95050       .     S
C92   H130   0.95050       .     S
C94   C93    1.38986       .     S
C93   C94    1.38986       .     S
H131  C93    0.95008       .     S
C93   H131   0.95008       .     S
C95   C94    1.39641       .     S
C94   C95    1.39641       .     S
C97   C94    1.47389       .     S
C94   C97    1.47389       .     S
C96   C95    1.39702       .     S
C95   C96    1.39702       .     S
H132  C95    0.95066       .     S
C95   H132   0.95066       .     S
H133  C96    0.94997       .     S
C96   H133   0.94997       .     S
C137  Cl134  1.73008       .     S
Cl134 C137   1.73008       .     S
C138  Cl135  1.74092       .     S
Cl135 C138   1.74092       .     S
C140  Cl136  1.72616       .     S
Cl136 C140   1.72616       .     S
C138  C137   1.37077       .     S
C137  C138   1.37077       .     S
C142  C137   1.37477       .     S
C137  C142   1.37477       .     S
C139  C138   1.39519       .     S
C138  C139   1.39519       .     S
C140  C139   1.40072       .     S
C139  C140   1.40072       .     S
H143  C139   0.95059       .     S
C139  H143   0.95059       .     S
C141  C140   1.37551       .     S
C140  C141   1.37551       .     S
C142  C141   1.39734       .     S
C141  C142   1.39734       .     S
H144  C141   0.95067       .     S
C141  H144   0.95067       .     S
H145  C142   0.94941       .     S
C142  H145   0.94941       .     S
C153  Cl146  1.91376       .     S
Cl146 C153   1.91376       .     S
H156  Cl146  1.31781       .     S
Cl146 H156   1.31781       .     S
Cl157 Cl146  1.97570       .     S
Cl146 Cl157  1.97570       .     S
C149  Cl147  1.69333       .     S
Cl147 C149   1.69333       .     S
Cl158 Cl147  2.22513       .     S
Cl147 Cl158  2.22513       .     S
C149  C148   1.38378       .     S
C148  C149   1.38378       .     S
C153  C148   1.41409       .     S
C148  C153   1.41409       .     S
Cl157 C148   1.73660       .     S
C148  Cl157  1.73660       .     S
C150  C149   1.42153       .     S
C149  C150   1.42153       .     S
C151  C150   1.35480       .     S
C150  C151   1.35480       .     S
H154  C150   0.95073       .     S
C150  H154   0.95073       .     S
C152  C151   1.35899   1_455     S
C151  C152   1.35899   1_655     S
Cl159 C151   1.77170   1_455     S
C151  Cl159  1.77170   1_655     S
Cl160 C151   1.56625   1_455     S
C151  Cl160  1.56625   1_655     S
C153  C152   1.30047   1_655     S
C152  C153   1.30047   1_455     S
H155  C152   0.94966       .     S
C152  H155   0.94966       .     S
H156  C153   0.95011       .     S
C153  H156   0.95011       .     S
Cl158 Cl157  1.28497       .     S
Cl157 Cl158  1.28497       .     S
Cl160 Cl159  0.83287       .     S
Cl159 Cl160  0.83287       .     S
C163  O161   1.24144       .     S
O161  C163   1.24144       .     S
C163  N162   1.33888   1_556     S
N162  C163   1.33888   1_554     S
C165  N162   1.46366       .     S
N162  C165   1.46366       .     S
C166  N162   1.44216       .     S
N162  C166   1.44216       .     S
C164  C163   1.51024       .     S
C163  C164   1.51024       .     S
H167  C164   0.97982       .     S
C164  H167   0.97982       .     S
H168  C164   0.97993       .     S
C164  H168   0.97993       .     S
H169  C164   0.98050       .     S
C164  H169   0.98050       .     S
H170  C165   0.98042       .     S
C165  H170   0.98042       .     S
H171  C165   0.97987       .     S
C165  H171   0.97987       .     S
H172  C165   0.98045       .     S
C165  H172   0.98045       .     S
H173  C166   0.97995       .     S
C166  H173   0.97995       .     S
H174  C166   0.97988   1_556     S
C166  H174   0.97988   1_554     S
H175  C166   0.97961       .     S
C166  H175   0.97961       .     S
