data_I
_chemical_name_common  '/data/user2/wty/HOF/MOFDiff/mofdiff/data/test/13-2d1_dma_c2'
_cell_length_a 27.42980
_cell_length_b 47.68720
_cell_length_c 27.90500
_cell_angle_alpha 90.00000
_cell_angle_beta  114.96300
_cell_angle_gamma 90.00000
_space_group_name_H-M_alt      'P 1'


loop_
_space_group_symop_operation_xyz
  'x, y, z' 

loop_
_atom_site_label
_atom_site_fract_x
_atom_site_fract_y
_atom_site_fract_z
_atom_site_type_symbol
N0      0.3849     0.41   0.2492     N
C1      0.3655  0.43382   0.2555     C
C2      0.3253  0.43582    0.273     C
C3      0.3051   0.4622   0.2779     C
C4      0.3254   0.4867   0.2663     C
C5      0.3634   0.4837   0.2476     C
C6      0.3842  0.45876   0.2426     C
C7      0.3664   0.3826   0.2625     C
C8      0.4163   0.4116   0.2184     C
H9     0.33176  0.38502  0.26274     H
H10    0.39174  0.37642  0.29676     H
H11    0.36391  0.36876  0.23653     H
H12    0.41957  0.43078  0.20995     H
H13    0.39865  0.40104  0.18627     H
H14    0.45144  0.40387   0.2385     H
H15    0.31168  0.41966  0.28151     H
H16     0.2777  0.46323  0.28919     H
H17     0.3135  0.50431  0.27117     H
H18    0.37586  0.49973  0.23754     H
H19    0.41108  0.45816  0.23055     H
O20    0.52839  0.55311  0.41673     O
O21    0.49642  0.57124  0.46962     O
O22     0.1864  0.56299   0.3823     O
O23     0.2085  0.55654   0.4657     O
O24    0.91917  0.27675  0.46139     O
O25    0.88762  0.25161  0.38691     O
O26    0.04198  0.11915  0.46954     O
O27    0.07535  0.10075  0.41708     O
O28     0.6127  0.10192   0.3736     O
O29     0.6779  0.11346   0.4449     O
O30    0.79166  0.24561  0.37986     O
O31    0.81755  0.27633   0.4451     O
C32     0.4231  0.35293  0.40458     C
C33    0.40204  0.37464  0.40763     C
C34    0.37691  0.39982  0.41367     C
C35    0.40087  0.42585  0.41546     C
C36    0.37739  0.45081  0.42106     C
C37    0.32672  0.44993  0.42267     C
C38    0.30311  0.42393  0.42144     C
C39    0.32759  0.39894  0.41808     C
C40    0.30337  0.37278  0.41983     C
C41     0.2826  0.35089  0.42246     C
C42    0.25945   0.3261  0.42521     C
C43    0.23921  0.30423  0.42884     C
C44    0.21442  0.27842  0.43171     C
C45    0.16527   0.2783  0.43525     C
C46    0.13899  0.25359  0.43663     C
C47    0.16421   0.2276  0.43682     C
C48    0.21312  0.22795  0.43324     C
C49    0.23917   0.2526  0.43072     C
C50    0.28815  0.25224  0.42501     C
C51    0.32829  0.25263  0.41717     C
C52    0.37388  0.25329  0.40923     C
C53    0.41575  0.25406  0.40445     C
C54    0.46615  0.25424  0.40181     C
C55    0.49166   0.2291  0.40108     C
C56    0.54287  0.22809   0.4029     C
C57    0.57066   0.2534  0.40564     C
C58    0.54488  0.27867  0.40585     C
C59    0.49327  0.27979  0.40337     C
C60    0.46823   0.3059  0.40352     C
C61    0.44736  0.32805  0.40368     C
C62    0.40763  0.47719  0.42533     C
C63    0.41373  0.49702  0.46505     C
C64    0.44319  0.52138  0.46972     C
C65    0.46752  0.52599   0.4363     C
C66     0.4631  0.50627   0.3983     C
C67    0.43296  0.48206   0.3931     C
C68    0.49903  0.55205    0.441     C
C69    0.29666  0.47534  0.42485     C
C70    0.27561  0.47742   0.4616     C
C71     0.2471  0.50133   0.4628     C
C72    0.23968  0.52287   0.4279     C
C73    0.25873  0.52017   0.3924     C
C74    0.28782  0.49691   0.3892     C
C75     0.2094  0.54879    0.425     C
C76    0.08448  0.25563  0.43521     C
C77    0.07398  0.27404  0.46853     C
C78     0.0223  0.27624  0.46523     C
C79    0.98076  0.26095   0.4291     C
C80    0.99119  0.24258  0.39584     C
C81    0.04195  0.24003  0.39815     C
C82    0.92512   0.2625  0.42383     C
C83    0.13975  0.20004  0.43876     C
C84    0.11788  0.19506  0.47451     C
C85    0.09448  0.16922  0.47559     C
C86    0.09357  0.14841  0.44119     C
C87    0.11693  0.15299   0.4063     C
C88    0.13972  0.17889   0.4056     C
C89    0.06793  0.12112   0.4417     C
C90    0.56731  0.19999  0.40379     C
C91     0.6171  0.19324  0.44277     C
C92    0.63796  0.16653  0.44415     C
C93    0.60996  0.14674   0.4077     C
C94    0.56059   0.1533   0.3688     C
C95    0.53819     0.18  0.36583     C
C96     0.6334  0.11848   0.4081     C
C97    0.62546  0.25469  0.40821     C
C98    0.66388  0.27215  0.44411     C
C99     0.7148  0.27441   0.4459     C
C100   0.72865  0.25874  0.41132     C
C101   0.69051  0.24142  0.37493     C
C102   0.63939  0.23927  0.37305     C
C103   0.78282  0.26081  0.41386     C
H104    0.5177  0.58366  0.47111     H
H105   0.17256  0.57704  0.38818     H
H106   0.43353  0.42656  0.41283     H
H107   0.88818  0.27508  0.45815     H
H108   0.26988  0.42326  0.42291     H
H109   0.06239  0.08654  0.42355     H
H110   0.68793   0.0978  0.44093     H
H111   0.82284  0.24777  0.38399     H
H112   0.14949  0.29534  0.43674     H
H113   0.22929  0.21092  0.43247     H
H114   0.47361  0.21235   0.3993     H
H115   0.56303   0.2954  0.40772     H
H116   0.39795  0.49375   0.4882     H
H117   0.44644  0.53457  0.49546     H
H118   0.48028  0.50918  0.37627     H
H119   0.42998  0.46897  0.36735     H
H120   0.28042  0.46293  0.48551     H
H121   0.23288  0.50271  0.48759     H
H122   0.25249  0.53454  0.36797     H
H123   0.30104  0.49592  0.36358     H
H124   0.10159  0.28481   0.4929     H
H125   0.01567  0.28833  0.48797     H
H126   0.96334  0.23186  0.37168     H
H127   0.04814  0.22796  0.37513     H
H128   0.11879  0.20908  0.49805     H
H129   0.07957   0.1661   0.4995     H
H130   0.11728   0.1388  0.38358     H
H131   0.15527  0.18193  0.38221     H
H132   0.63666  0.20649  0.46804     H
H133   0.67167   0.1621  0.47042     H
H134   0.54157   0.1398  0.34379     H
H135   0.50465  0.18434  0.33917     H
H136   0.65519   0.2826  0.46756     H
H137   0.73986  0.28639  0.47018     H
H138   0.69929  0.23109  0.35141     H
H139   0.61416  0.22753  0.34834     H
O140   0.23619  0.38559  0.29079     O
O141   0.16317  0.37082   0.2215     O
O142   0.06744  0.21495  0.29657     O
O143   0.03247  0.20632  0.21238     O
O144   0.30943  0.93433    0.208     O
O145    0.3804  0.91915   0.2796     O
C146   0.47662  0.23763  0.25333     C
C147   0.43587  0.23703  0.25947     C
C148   0.38476  0.23555  0.26118     C
C149   0.35833   0.2598  0.26561     C
C150   0.30599  0.25923  0.26197     C
C151   0.27949   0.2332  0.25547     C
C152   0.30638  0.20909  0.25175     C
C153   0.35783  0.20971   0.2549     C
C154   0.38315   0.1841  0.25115     C
C155   0.40287  0.16191  0.24866     C
C156    0.4262  0.13678  0.24761     C
C157   0.44675  0.11458  0.24697     C
C158   0.47315   0.0888  0.24715     C
C159   0.44699  0.06345    0.243     C
C160   0.47325  0.03798   0.2467     C
C161   0.27994  0.28649  0.26224     C
C162    0.2292  0.29269  0.22369     C
C163   0.20638   0.3187   0.2231     C
C164   0.23417  0.33893   0.2605     C
C165   0.28494   0.3328  0.29964     C
C166   0.30774   0.3068  0.30043     C
C167   0.21065  0.36715    0.258     C
C168   0.22454  0.22941  0.25405     C
C169   0.18649  0.21352  0.21486     C
C170   0.13655  0.20903   0.2137     C
C171   0.12406  0.21843  0.25308     C
C172   0.16259  0.23304   0.2933     C
C173   0.21147  0.23933  0.29326     C
C174   0.06942  0.21267  0.25081     C
C175   0.44299  0.01172   0.2453     C
C176   0.39118   0.0079   0.2065     C
C177   0.36318  0.98349   0.2067     C
C178    0.3856  0.96361   0.2432     C
C179    0.4383  0.96755   0.2851     C
C180    0.4665  0.99149   0.2831     C
C181    0.3571  0.93753   0.2455     C
H182   0.15292  0.38673  0.22371     H
H183   0.03717  0.21091   0.2934     H
H184    0.2983  0.91859  0.20982     H
H185   0.37621   0.2769  0.27117     H
H186   0.28889  0.19191  0.24694     H
H187   0.41113  0.06343  0.23752     H
H188   0.21042  0.27939  0.19818     H
H189   0.17212  0.32266   0.1973     H
H190   0.30353  0.34612  0.32519     H
H191   0.34179  0.30277   0.3265     H
H192   0.19477  0.20568  0.18868     H
H193   0.11078  0.19936  0.18539     H
H194   0.15557  0.23893  0.32152     H
H195   0.23591  0.25041  0.32007     H
H196    0.3753  0.02147  0.18057     H
H197   0.32831  0.98102   0.1809     H
H198   0.45294  0.95465  0.31253     H
H199   0.50186   0.9938  0.30785     H
O200   0.76381  0.38559  0.20921     O
O201   0.83683  0.37082   0.2785     O
O202   0.93256  0.21495  0.20343     O
O203   0.96753  0.20632  0.28762     O
O204   0.69057  0.93433    0.292     O
O205    0.6196  0.91915   0.2204     O
C206   0.52338  0.23763  0.24667     C
C207   0.56413  0.23703  0.24053     C
C208   0.61524  0.23555  0.23882     C
C209   0.64167   0.2598  0.23439     C
C210   0.69401  0.25923  0.23803     C
C211   0.72051   0.2332  0.24453     C
C212   0.69362  0.20909  0.24825     C
C213   0.64217  0.20971   0.2451     C
C214   0.61685   0.1841  0.24885     C
C215   0.59713  0.16191  0.25134     C
C216    0.5738  0.13678  0.25239     C
C217   0.55325  0.11458  0.25303     C
C218   0.52685   0.0888  0.25285     C
C219   0.55301  0.06345    0.257     C
C220   0.52675  0.03798   0.2533     C
C221   0.72006  0.28649  0.23776     C
C222    0.7708  0.29269  0.27631     C
C223   0.79362   0.3187   0.2769     C
C224   0.76583  0.33893   0.2395     C
C225   0.71506   0.3328  0.20036     C
C226   0.69226   0.3068  0.19957     C
C227   0.78935  0.36715    0.242     C
C228   0.77546  0.22941  0.24595     C
C229   0.81351  0.21352  0.28514     C
C230   0.86345  0.20903   0.2863     C
C231   0.87594  0.21843  0.24692     C
C232   0.83741  0.23304   0.2067     C
C233   0.78853  0.23933  0.20674     C
C234   0.93058  0.21267  0.24919     C
C235   0.55701  0.01172   0.2547     C
C236   0.60882   0.0079   0.2935     C
C237   0.63682  0.98349   0.2933     C
C238    0.6144  0.96361   0.2568     C
C239    0.5617  0.96755   0.2149     C
C240    0.5335  0.99149   0.2169     C
C241    0.6429  0.93753   0.2545     C
H242   0.84708  0.38673  0.27629     H
H243   0.96283  0.21091   0.2066     H
H244    0.7017  0.91859  0.29018     H
H245   0.62379   0.2769  0.22883     H
H246   0.71111  0.19191  0.25306     H
H247   0.58887  0.06343  0.26248     H
H248   0.78958  0.27939  0.30182     H
H249   0.82788  0.32266   0.3027     H
H250   0.69647  0.34612  0.17481     H
H251   0.65821  0.30277   0.1735     H
H252   0.80523  0.20568  0.31132     H
H253   0.88922  0.19936  0.31461     H
H254   0.84443  0.23893  0.17848     H
H255   0.76409  0.25041  0.17993     H
H256    0.6247  0.02147  0.31943     H
H257   0.67169  0.98102   0.3191     H
H258   0.54706  0.95465  0.18747     H
H259   0.49814   0.9938  0.19215     H
loop_
_geom_bond_atom_site_label_1
_geom_bond_atom_site_label_2
_geom_bond_distance
_geom_bond_site_symmetry_2
_ccdc_geom_bond_type
H107  O31    1.81495       .     S
O31   H107   1.81495       .     S
H111  O25    1.75367       .     S
O25   H111   1.75367       .     S
H183  O203   1.86085   1_455     S
O203  H183   1.86085   1_655     S
H243  O143   1.86085   1_655     S
O143  H243   1.86085   1_455     S
N0    C1     1.29743       .     S
C1    N0     1.29743       .     S
N0    C7     1.50383       .     S
C7    N0     1.50383       .     S
N0    C8     1.45299       .     S
C8    N0     1.45299       .     S
C1    C2     1.38491       .     S
C2    C1     1.38491       .     S
C1    C6     1.40108       .     S
C6    C1     1.40108       .     S
C2    C3     1.40435       .     S
C3    C2     1.40435       .     S
C2    H15    0.92990       .     S
H15   C2     0.92990       .     S
C3    C4     1.38996       .     S
C4    C3     1.38996       .     S
C3    H16    0.93080       .     S
H16   C3     0.93080       .     S
C4    C5     1.35585       .     S
C5    C4     1.35585       .     S
C4    H17    0.93149       .     S
H17   C4     0.93149       .     S
C5    C6     1.35154       .     S
C6    C5     1.35154       .     S
C5    H18    0.92787       .     S
H18   C5     0.92787       .     S
C6    H19    0.93101       .     S
H19   C6     0.93101       .     S
C7    H9     0.95998       .     S
H9    C7     0.95998       .     S
C7    H10    0.96077       .     S
H10   C7     0.96077       .     S
C7    H11    0.96107       .     S
H11   C7     0.96107       .     S
C8    H12    0.95816       .     S
H12   C8     0.95816       .     S
C8    H13    0.96201       .     S
H13   C8     0.96201       .     S
C8    H14    0.96084       .     S
H14   C8     0.96084       .     S
O20   C68    1.25306       .     S
C68   O20    1.25306       .     S
O21   C68    1.23639       .     S
C68   O21    1.23639       .     S
O21   H104   0.82021       .     S
H104  O21    0.82021       .     S
O22   C75    1.28134       .     S
C75   O22    1.28134       .     S
O22   H105   0.82008       .     S
H105  O22    0.82008       .     S
O23   C75    1.20447       .     S
C75   O23    1.20447       .     S
O24   C82    1.31580       .     S
C82   O24    1.31580       .     S
O24   H107   0.81990       .     S
H107  O24    0.81990       .     S
O25   C82    1.22257       .     S
C82   O25    1.22257       .     S
O26   C89    1.25928       .     S
C89   O26    1.25928       .     S
O27   C89    1.25501       .     S
C89   O27    1.25501       .     S
O27   H109   0.81996       .     S
H109  O27    0.81996       .     S
O28   C96    1.18805       .     S
C96   O28    1.18805       .     S
O29   C96    1.24248       .     S
C96   O29    1.24248       .     S
O29   H110   0.81937       .     S
H110  O29    0.81937       .     S
O30   C103   1.29559       .     S
C103  O30    1.29559       .     S
O30   H111   0.81986       .     S
H111  O30    0.81986       .     S
O31   C103   1.23055       .     S
C103  O31    1.23055       .     S
C32   C33    1.20593       .     S
C33   C32    1.20593       .     S
C32   C61    1.36574       .     S
C61   C32    1.36574       .     S
C33   C34    1.42950       .     S
C34   C33    1.42950       .     S
C34   C35    1.39554       .     S
C35   C34    1.39554       .     S
C34   C39    1.40982       .     S
C39   C34    1.40982       .     S
C35   C36    1.39317       .     S
C36   C35    1.39317       .     S
C35   H106   0.92983       .     S
H106  C35    0.92983       .     S
C36   C37    1.41004       .     S
C37   C36    1.41004       .     S
C36   C62    1.48369       .     S
C62   C36    1.48369       .     S
C37   C38    1.39251       .     S
C38   C37    1.39251       .     S
C37   C69    1.48128       .     S
C69   C37    1.48128       .     S
C38   C39    1.39032       .     S
C39   C38    1.39032       .     S
C38   H108   0.93010       .     S
H108  C38    0.93010       .     S
C39   C40    1.42386       .     S
C40   C39    1.42386       .     S
C40   C41    1.20620       .     S
C41   C40    1.20620       .     S
C41   C42    1.35932       .     S
C42   C41    1.35932       .     S
C42   C43    1.20567       .     S
C43   C42    1.20567       .     S
C43   C44    1.42466       .     S
C44   C43    1.42466       .     S
C44   C45    1.39276       .     S
C45   C44    1.39276       .     S
C44   C49    1.41193       .     S
C49   C44    1.41193       .     S
C45   C46    1.39034       .     S
C46   C45    1.39034       .     S
C45   H112   0.92983       .     S
H112  C45    0.92983       .     S
C46   C47    1.41830       .     S
C47   C46    1.41830       .     S
C46   C76    1.48211       .     S
C76   C46    1.48211       .     S
C47   C48    1.38681       .     S
C48   C47    1.38681       .     S
C47   C83    1.48695       .     S
C83   C47    1.48695       .     S
C48   C49    1.39273       .     S
C49   C48    1.39273       .     S
C48   H113   0.92993       .     S
H113  C48    0.92993       .     S
C49   C50    1.41824       .     S
C50   C49    1.41824       .     S
C50   C51    1.20987       .     S
C51   C50    1.20987       .     S
C51   C52    1.35932       .     S
C52   C51    1.35932       .     S
C52   C53    1.21139       .     S
C53   C52    1.21139       .     S
C53   C54    1.41515       .     S
C54   C53    1.41515       .     S
C54   C55    1.39260       .     S
C55   C54    1.39260       .     S
C54   C59    1.41861       .     S
C59   C54    1.41861       .     S
C55   C56    1.38485       .     S
C56   C55    1.38485       .     S
C55   H114   0.92998       .     S
H114  C55    0.92998       .     S
C56   C57    1.41226       .     S
C57   C56    1.41226       .     S
C56   C90    1.49386       .     S
C90   C56    1.49386       .     S
C57   C58    1.39848       .     S
C58   C57    1.39848       .     S
C57   C97    1.47560       .     S
C97   C57    1.47560       .     S
C58   C59    1.38889       .     S
C59   C58    1.38889       .     S
C58   H115   0.93013       .     S
H115  C58    0.93013       .     S
C59   C60    1.42285       .     S
C60   C59    1.42285       .     S
C60   C61    1.20233       .     S
C61   C60    1.20233       .     S
C62   C63    1.41217       .     S
C63   C62    1.41217       .     S
C62   C67    1.36858       .     S
C67   C62    1.36858       .     S
C63   C64    1.38944       .     S
C64   C63    1.38944       .     S
C63   H116   0.93005       .     S
H116  C63    0.93005       .     S
C64   C65    1.37432       .     S
C65   C64    1.37432       .     S
C64   H117   0.93030       .     S
H117  C64    0.93030       .     S
C65   C66    1.38382       .     S
C66   C65    1.38382       .     S
C65   C68    1.48759       .     S
C68   C65    1.48759       .     S
C66   C67    1.39146       .     S
C67   C66    1.39146       .     S
C66   H118   0.92939       .     S
H118  C66    0.92939       .     S
C67   H119   0.92902       .     S
H119  C67    0.92902       .     S
C69   C70    1.37648       .     S
C70   C69    1.37648       .     S
C69   C74    1.37945       .     S
C74   C69    1.37945       .     S
C70   C71    1.39099       .     S
C71   C70    1.39099       .     S
C70   H120   0.93045       .     S
H120  C70    0.93045       .     S
C71   C72    1.37028       .     S
C72   C71    1.37028       .     S
C71   H121   0.92885       .     S
H121  C71    0.92885       .     S
C72   C73    1.30686       .     S
C73   C72    1.30686       .     S
C72   C75    1.47224       .     S
C75   C72    1.47224       .     S
C73   C74    1.39109       .     S
C74   C73    1.39109       .     S
C73   H122   0.93013       .     S
H122  C73    0.93013       .     S
C74   H123   0.92934       .     S
H123  C74    0.92934       .     S
C76   C77    1.39436       .     S
C77   C76    1.39436       .     S
C76   C81    1.40197       .     S
C81   C76    1.40197       .     S
C77   C78    1.38521       .     S
C78   C77    1.38521       .     S
C77   H124   0.93010       .     S
H124  C77    0.93010       .     S
C78   C79    1.36996   1_455     S
C79   C78    1.36996   1_655     S
C78   H125   0.93034       .     S
H125  C78    0.93034       .     S
C79   C80    1.39096       .     S
C80   C79    1.39096       .     S
C79   C82    1.47204       .     S
C82   C79    1.47204       .     S
C80   C81    1.37178   1_655     S
C81   C80    1.37178   1_455     S
C80   H126   0.92990       .     S
H126  C80    0.92990       .     S
C81   H127   0.92996       .     S
H127  C81    0.92996       .     S
C83   C84    1.38442       .     S
C84   C83    1.38442       .     S
C83   C88    1.36852       .     S
C88   C83    1.36852       .     S
C84   C85    1.39557       .     S
C85   C84    1.39557       .     S
C84   H128   0.93020       .     S
H128  C84    0.93020       .     S
C85   C86    1.37356       .     S
C86   C85    1.37356       .     S
C85   H129   0.93000       .     S
H129  C85    0.93000       .     S
C86   C87    1.39023       .     S
C87   C86    1.39023       .     S
C86   C89    1.48219       .     S
C89   C86    1.48219       .     S
C87   C88    1.38814       .     S
C88   C87    1.38814       .     S
C87   H130   0.93010       .     S
H130  C87    0.93010       .     S
C88   H131   0.92949       .     S
H131  C88    0.92949       .     S
C90   C91    1.37771       .     S
C91   C90    1.37771       .     S
C90   C95    1.39808       .     S
C95   C90    1.39808       .     S
C91   C92    1.39020       .     S
C92   C91    1.39020       .     S
C91   H132   0.93006       .     S
H132  C91    0.93006       .     S
C92   C93    1.36224       .     S
C93   C92    1.36224       .     S
C92   H133   0.92998       .     S
H133  C92    0.92998       .     S
C93   C94    1.36722       .     S
C94   C93    1.36722       .     S
C93   C96    1.49117       .     S
C96   C93    1.49117       .     S
C94   C95    1.40092       .     S
C95   C94    1.40092       .     S
C94   H134   0.93079       .     S
H134  C94    0.93079       .     S
C95   H135   0.93004       .     S
H135  C95    0.93004       .     S
C97   C98    1.38431       .     S
C98   C97    1.38431       .     S
C97   C102   1.40206       .     S
C102  C97    1.40206       .     S
C98   C99    1.38060       .     S
C99   C98    1.38060       .     S
C98   H136   0.93006       .     S
H136  C98    0.93006       .     S
C99   C100   1.39402       .     S
C100  C99    1.39402       .     S
C99   H137   0.92996       .     S
H137  C99    0.92996       .     S
C100  C101   1.38244       .     S
C101  C100   1.38244       .     S
C100  C103   1.46072       .     S
C103  C100   1.46072       .     S
C101  C102   1.38469       .     S
C102  C101   1.38469       .     S
C101  H138   0.92997       .     S
H138  C101   0.92997       .     S
C102  H139   0.93008       .     S
H139  C102   0.93008       .     S
O140  C167   1.24909       .     S
C167  O140   1.24909       .     S
O141  C167   1.28240       .     S
C167  O141   1.28240       .     S
O141  H182   0.82044       .     S
H182  O141   0.82044       .     S
O142  C174   1.30532       .     S
C174  O142   1.30532       .     S
O142  H183   0.81997       .     S
H183  O142   0.81997       .     S
O143  C174   1.16256       .     S
C174  O143   1.16256       .     S
O144  C181   1.29350       .     S
C181  O144   1.29350       .     S
O144  H184   0.81992       .     S
H184  O144   0.81992       .     S
O145  C181   1.25254       .     S
C181  O145   1.25254       .     S
C146  C147   1.20051       .     S
C147  C146   1.20051       .     S
C146  C206   1.37144       .     S
C206  C146   1.37144       .     S
C147  C148   1.42448       .     S
C148  C147   1.42448       .     S
C148  C149   1.39778       .     S
C149  C148   1.39778       .     S
C148  C153   1.40908       .     S
C153  C148   1.40908       .     S
C149  C150   1.39611       .     S
C150  C149   1.39611       .     S
C149  H185   0.93024       .     S
H185  C149   0.93024       .     S
C150  C151   1.41096       .     S
C151  C150   1.41096       .     S
C150  C161   1.48494       .     S
C161  C150   1.48494       .     S
C151  C152   1.39332       .     S
C152  C151   1.39332       .     S
C151  C168   1.50189       .     S
C168  C151   1.50189       .     S
C152  C153   1.37679       .     S
C153  C152   1.37679       .     S
C152  H186   0.93006       .     S
H186  C152   0.93006       .     S
C153  C154   1.43044       .     S
C154  C153   1.43044       .     S
C154  C155   1.20370       .     S
C155  C154   1.20370       .     S
C155  C156   1.36467       .     S
C156  C155   1.36467       .     S
C156  C157   1.20304       .     S
C157  C156   1.20304       .     S
C157  C158   1.42573       .     S
C158  C157   1.42573       .     S
C158  C159   1.38547       .     S
C159  C158   1.38547       .     S
C158  C218   1.41323       .     S
C218  C158   1.41323       .     S
C159  C160   1.39354       .     S
C160  C159   1.39354       .     S
C159  H187   0.92949       .     S
H187  C159   0.92949       .     S
C160  C175   1.49374       .     S
C175  C160   1.49374       .     S
C160  C220   1.39976       .     S
C220  C160   1.39976       .     S
C161  C162   1.38491       .     S
C162  C161   1.38491       .     S
C161  C166   1.40332       .     S
C166  C161   1.40332       .     S
C162  C163   1.38630       .     S
C163  C162   1.38630       .     S
C162  H188   0.92997       .     S
H188  C162   0.92997       .     S
C163  C164   1.38904       .     S
C164  C163   1.38904       .     S
C163  H189   0.93061       .     S
H189  C163   0.93061       .     S
C164  C165   1.39064       .     S
C165  C164   1.39064       .     S
C164  C167   1.48125       .     S
C167  C164   1.48125       .     S
C165  C166   1.38465       .     S
C166  C165   1.38465       .     S
C165  H190   0.93003       .     S
H190  C165   0.93003       .     S
C166  H191   0.93005       .     S
H191  C166   0.93005       .     S
C168  C169   1.37697       .     S
C169  C168   1.37697       .     S
C168  C173   1.37134       .     S
C173  C168   1.37134       .     S
C169  C170   1.37329       .     S
C170  C169   1.37329       .     S
C169  H192   0.93012       .     S
H192  C169   0.93012       .     S
C170  C171   1.35782       .     S
C171  C170   1.35782       .     S
C170  H193   0.93008       .     S
H193  C170   0.93008       .     S
C171  C172   1.36412       .     S
C172  C171   1.36412       .     S
C171  C174   1.49854       .     S
C174  C171   1.49854       .     S
C172  C173   1.37437       .     S
C173  C172   1.37437       .     S
C172  H194   0.92956       .     S
H194  C172   0.92956       .     S
C173  H195   0.93004       .     S
H195  C173   0.93004       .     S
C175  C176   1.38793       .     S
C176  C175   1.38793       .     S
C175  C180   1.37296   1_545     S
C180  C175   1.37296   1_565     S
C176  C177   1.39590   1_545     S
C177  C176   1.39589   1_565     S
C176  H196   0.93060       .     S
H196  C176   0.93060       .     S
C177  C178   1.33628       .     S
C178  C177   1.33628       .     S
C177  H197   0.93049       .     S
H197  C177   0.93049       .     S
C178  C179   1.43714       .     S
C179  C178   1.43714       .     S
C178  C181   1.48470       .     S
C181  C178   1.48470       .     S
C179  C180   1.39327       .     S
C180  C179   1.39327       .     S
C179  H198   0.93066       .     S
H198  C179   0.93066       .     S
C180  H199   0.92976       .     S
H199  C180   0.92976       .     S
O200  C227   1.24909       .     S
C227  O200   1.24909       .     S
O201  C227   1.28240       .     S
C227  O201   1.28240       .     S
O201  H242   0.82044       .     S
H242  O201   0.82044       .     S
O202  C234   1.30532       .     S
C234  O202   1.30532       .     S
O202  H243   0.81997       .     S
H243  O202   0.81997       .     S
O203  C234   1.16256       .     S
C234  O203   1.16256       .     S
O204  C241   1.29350       .     S
C241  O204   1.29350       .     S
O204  H244   0.81992       .     S
H244  O204   0.81992       .     S
O205  C241   1.25254       .     S
C241  O205   1.25254       .     S
C206  C207   1.20051       .     S
C207  C206   1.20051       .     S
C207  C208   1.42448       .     S
C208  C207   1.42448       .     S
C208  C209   1.39778       .     S
C209  C208   1.39778       .     S
C208  C213   1.40908       .     S
C213  C208   1.40908       .     S
C209  C210   1.39612       .     S
C210  C209   1.39612       .     S
C209  H245   0.93024       .     S
H245  C209   0.93024       .     S
C210  C211   1.41096       .     S
C211  C210   1.41096       .     S
C210  C221   1.48494       .     S
C221  C210   1.48494       .     S
C211  C212   1.39332       .     S
C212  C211   1.39332       .     S
C211  C228   1.50189       .     S
C228  C211   1.50189       .     S
C212  C213   1.37679       .     S
C213  C212   1.37679       .     S
C212  H246   0.93006       .     S
H246  C212   0.93006       .     S
C213  C214   1.43044       .     S
C214  C213   1.43044       .     S
C214  C215   1.20370       .     S
C215  C214   1.20370       .     S
C215  C216   1.36467       .     S
C216  C215   1.36467       .     S
C216  C217   1.20304       .     S
C217  C216   1.20304       .     S
C217  C218   1.42573       .     S
C218  C217   1.42573       .     S
C218  C219   1.38547       .     S
C219  C218   1.38547       .     S
C219  C220   1.39354       .     S
C220  C219   1.39354       .     S
C219  H247   0.92949       .     S
H247  C219   0.92949       .     S
C220  C235   1.49374       .     S
C235  C220   1.49374       .     S
C221  C222   1.38491       .     S
C222  C221   1.38491       .     S
C221  C226   1.40332       .     S
C226  C221   1.40332       .     S
C222  C223   1.38630       .     S
C223  C222   1.38630       .     S
C222  H248   0.92997       .     S
H248  C222   0.92997       .     S
C223  C224   1.38904       .     S
C224  C223   1.38904       .     S
C223  H249   0.93061       .     S
H249  C223   0.93061       .     S
C224  C225   1.39064       .     S
C225  C224   1.39064       .     S
C224  C227   1.48125       .     S
C227  C224   1.48125       .     S
C225  C226   1.38464       .     S
C226  C225   1.38464       .     S
C225  H250   0.93003       .     S
H250  C225   0.93003       .     S
C226  H251   0.93005       .     S
H251  C226   0.93005       .     S
C228  C229   1.37697       .     S
C229  C228   1.37697       .     S
C228  C233   1.37134       .     S
C233  C228   1.37134       .     S
C229  C230   1.37329       .     S
C230  C229   1.37329       .     S
C229  H252   0.93012       .     S
H252  C229   0.93012       .     S
C230  C231   1.35782       .     S
C231  C230   1.35782       .     S
C230  H253   0.93008       .     S
H253  C230   0.93008       .     S
C231  C232   1.36412       .     S
C232  C231   1.36412       .     S
C231  C234   1.49854       .     S
C234  C231   1.49854       .     S
C232  C233   1.37437       .     S
C233  C232   1.37437       .     S
C232  H254   0.92956       .     S
H254  C232   0.92956       .     S
C233  H255   0.93003       .     S
H255  C233   0.93003       .     S
C235  C236   1.38793       .     S
C236  C235   1.38793       .     S
C235  C240   1.37295   1_545     S
C240  C235   1.37296   1_565     S
C236  C237   1.39590   1_545     S
C237  C236   1.39590   1_565     S
C236  H256   0.93060       .     S
H256  C236   0.93060       .     S
C237  C238   1.33628       .     S
C238  C237   1.33628       .     S
C237  H257   0.93049       .     S
H257  C237   0.93049       .     S
C238  C239   1.43714       .     S
C239  C238   1.43714       .     S
C238  C241   1.48470       .     S
C241  C238   1.48470       .     S
C239  C240   1.39327       .     S
C240  C239   1.39327       .     S
C239  H258   0.93066       .     S
H258  C239   0.93066       .     S
C240  H259   0.92976       .     S
H259  C240   0.92976       .     S
O31   H107   1.81495       .     S
H107  O31    1.81495       .     S
O25   H111   1.75367       .     S
H111  O25    1.75367       .     S
O203  H183   1.86085   1_655     S
H183  O203   1.86085   1_455     S
O143  H243   1.86085   1_455     S
H243  O143   1.86085   1_655     S
C1    N0     1.29743       .     S
N0    C1     1.29743       .     S
C7    N0     1.50383       .     S
N0    C7     1.50383       .     S
C8    N0     1.45299       .     S
N0    C8     1.45299       .     S
C2    C1     1.38491       .     S
C1    C2     1.38491       .     S
C6    C1     1.40108       .     S
C1    C6     1.40108       .     S
C3    C2     1.40435       .     S
C2    C3     1.40435       .     S
H15   C2     0.92990       .     S
C2    H15    0.92990       .     S
C4    C3     1.38996       .     S
C3    C4     1.38996       .     S
H16   C3     0.93080       .     S
C3    H16    0.93080       .     S
C5    C4     1.35585       .     S
C4    C5     1.35585       .     S
H17   C4     0.93149       .     S
C4    H17    0.93149       .     S
C6    C5     1.35154       .     S
C5    C6     1.35154       .     S
H18   C5     0.92787       .     S
C5    H18    0.92787       .     S
H19   C6     0.93101       .     S
C6    H19    0.93101       .     S
H9    C7     0.95998       .     S
C7    H9     0.95998       .     S
H10   C7     0.96077       .     S
C7    H10    0.96077       .     S
H11   C7     0.96107       .     S
C7    H11    0.96107       .     S
H12   C8     0.95816       .     S
C8    H12    0.95816       .     S
H13   C8     0.96201       .     S
C8    H13    0.96201       .     S
H14   C8     0.96084       .     S
C8    H14    0.96084       .     S
C68   O20    1.25306       .     S
O20   C68    1.25306       .     S
C68   O21    1.23639       .     S
O21   C68    1.23639       .     S
H104  O21    0.82021       .     S
O21   H104   0.82021       .     S
C75   O22    1.28134       .     S
O22   C75    1.28134       .     S
H105  O22    0.82008       .     S
O22   H105   0.82008       .     S
C75   O23    1.20447       .     S
O23   C75    1.20447       .     S
C82   O24    1.31580       .     S
O24   C82    1.31580       .     S
H107  O24    0.81990       .     S
O24   H107   0.81990       .     S
C82   O25    1.22257       .     S
O25   C82    1.22257       .     S
C89   O26    1.25928       .     S
O26   C89    1.25928       .     S
C89   O27    1.25501       .     S
O27   C89    1.25501       .     S
H109  O27    0.81996       .     S
O27   H109   0.81996       .     S
C96   O28    1.18805       .     S
O28   C96    1.18805       .     S
C96   O29    1.24248       .     S
O29   C96    1.24248       .     S
H110  O29    0.81937       .     S
O29   H110   0.81937       .     S
C103  O30    1.29559       .     S
O30   C103   1.29559       .     S
H111  O30    0.81986       .     S
O30   H111   0.81986       .     S
C103  O31    1.23055       .     S
O31   C103   1.23055       .     S
C33   C32    1.20593       .     S
C32   C33    1.20593       .     S
C61   C32    1.36574       .     S
C32   C61    1.36574       .     S
C34   C33    1.42950       .     S
C33   C34    1.42950       .     S
C35   C34    1.39554       .     S
C34   C35    1.39554       .     S
C39   C34    1.40982       .     S
C34   C39    1.40982       .     S
C36   C35    1.39317       .     S
C35   C36    1.39317       .     S
H106  C35    0.92983       .     S
C35   H106   0.92983       .     S
C37   C36    1.41004       .     S
C36   C37    1.41004       .     S
C62   C36    1.48369       .     S
C36   C62    1.48369       .     S
C38   C37    1.39251       .     S
C37   C38    1.39251       .     S
C69   C37    1.48128       .     S
C37   C69    1.48128       .     S
C39   C38    1.39032       .     S
C38   C39    1.39032       .     S
H108  C38    0.93010       .     S
C38   H108   0.93010       .     S
C40   C39    1.42386       .     S
C39   C40    1.42386       .     S
C41   C40    1.20620       .     S
C40   C41    1.20620       .     S
C42   C41    1.35932       .     S
C41   C42    1.35932       .     S
C43   C42    1.20567       .     S
C42   C43    1.20567       .     S
C44   C43    1.42466       .     S
C43   C44    1.42466       .     S
C45   C44    1.39276       .     S
C44   C45    1.39276       .     S
C49   C44    1.41193       .     S
C44   C49    1.41193       .     S
C46   C45    1.39034       .     S
C45   C46    1.39034       .     S
H112  C45    0.92983       .     S
C45   H112   0.92983       .     S
C47   C46    1.41830       .     S
C46   C47    1.41830       .     S
C76   C46    1.48211       .     S
C46   C76    1.48211       .     S
C48   C47    1.38681       .     S
C47   C48    1.38681       .     S
C83   C47    1.48695       .     S
C47   C83    1.48695       .     S
C49   C48    1.39273       .     S
C48   C49    1.39273       .     S
H113  C48    0.92993       .     S
C48   H113   0.92993       .     S
C50   C49    1.41824       .     S
C49   C50    1.41824       .     S
C51   C50    1.20987       .     S
C50   C51    1.20987       .     S
C52   C51    1.35932       .     S
C51   C52    1.35932       .     S
C53   C52    1.21139       .     S
C52   C53    1.21139       .     S
C54   C53    1.41515       .     S
C53   C54    1.41515       .     S
C55   C54    1.39260       .     S
C54   C55    1.39260       .     S
C59   C54    1.41861       .     S
C54   C59    1.41861       .     S
C56   C55    1.38485       .     S
C55   C56    1.38485       .     S
H114  C55    0.92998       .     S
C55   H114   0.92998       .     S
C57   C56    1.41226       .     S
C56   C57    1.41226       .     S
C90   C56    1.49386       .     S
C56   C90    1.49386       .     S
C58   C57    1.39848       .     S
C57   C58    1.39848       .     S
C97   C57    1.47560       .     S
C57   C97    1.47560       .     S
C59   C58    1.38889       .     S
C58   C59    1.38889       .     S
H115  C58    0.93013       .     S
C58   H115   0.93013       .     S
C60   C59    1.42285       .     S
C59   C60    1.42285       .     S
C61   C60    1.20233       .     S
C60   C61    1.20233       .     S
C63   C62    1.41217       .     S
C62   C63    1.41217       .     S
C67   C62    1.36858       .     S
C62   C67    1.36858       .     S
C64   C63    1.38944       .     S
C63   C64    1.38944       .     S
H116  C63    0.93005       .     S
C63   H116   0.93005       .     S
C65   C64    1.37432       .     S
C64   C65    1.37432       .     S
H117  C64    0.93030       .     S
C64   H117   0.93030       .     S
C66   C65    1.38382       .     S
C65   C66    1.38382       .     S
C68   C65    1.48759       .     S
C65   C68    1.48759       .     S
C67   C66    1.39146       .     S
C66   C67    1.39146       .     S
H118  C66    0.92939       .     S
C66   H118   0.92939       .     S
H119  C67    0.92902       .     S
C67   H119   0.92902       .     S
C70   C69    1.37648       .     S
C69   C70    1.37648       .     S
C74   C69    1.37945       .     S
C69   C74    1.37945       .     S
C71   C70    1.39099       .     S
C70   C71    1.39099       .     S
H120  C70    0.93045       .     S
C70   H120   0.93045       .     S
C72   C71    1.37028       .     S
C71   C72    1.37028       .     S
H121  C71    0.92885       .     S
C71   H121   0.92885       .     S
C73   C72    1.30686       .     S
C72   C73    1.30686       .     S
C75   C72    1.47224       .     S
C72   C75    1.47224       .     S
C74   C73    1.39109       .     S
C73   C74    1.39109       .     S
H122  C73    0.93013       .     S
C73   H122   0.93013       .     S
H123  C74    0.92934       .     S
C74   H123   0.92934       .     S
C77   C76    1.39436       .     S
C76   C77    1.39436       .     S
C81   C76    1.40197       .     S
C76   C81    1.40197       .     S
C78   C77    1.38521       .     S
C77   C78    1.38521       .     S
H124  C77    0.93010       .     S
C77   H124   0.93010       .     S
C79   C78    1.36996   1_655     S
C78   C79    1.36996   1_455     S
H125  C78    0.93034       .     S
C78   H125   0.93034       .     S
C80   C79    1.39096       .     S
C79   C80    1.39096       .     S
C82   C79    1.47204       .     S
C79   C82    1.47204       .     S
C81   C80    1.37178   1_455     S
C80   C81    1.37178   1_655     S
H126  C80    0.92990       .     S
C80   H126   0.92990       .     S
H127  C81    0.92996       .     S
C81   H127   0.92996       .     S
C84   C83    1.38442       .     S
C83   C84    1.38442       .     S
C88   C83    1.36852       .     S
C83   C88    1.36852       .     S
C85   C84    1.39557       .     S
C84   C85    1.39557       .     S
H128  C84    0.93020       .     S
C84   H128   0.93020       .     S
C86   C85    1.37356       .     S
C85   C86    1.37356       .     S
H129  C85    0.93000       .     S
C85   H129   0.93000       .     S
C87   C86    1.39023       .     S
C86   C87    1.39023       .     S
C89   C86    1.48219       .     S
C86   C89    1.48219       .     S
C88   C87    1.38814       .     S
C87   C88    1.38814       .     S
H130  C87    0.93010       .     S
C87   H130   0.93010       .     S
H131  C88    0.92949       .     S
C88   H131   0.92949       .     S
C91   C90    1.37771       .     S
C90   C91    1.37771       .     S
C95   C90    1.39808       .     S
C90   C95    1.39808       .     S
C92   C91    1.39020       .     S
C91   C92    1.39020       .     S
H132  C91    0.93006       .     S
C91   H132   0.93006       .     S
C93   C92    1.36224       .     S
C92   C93    1.36224       .     S
H133  C92    0.92998       .     S
C92   H133   0.92998       .     S
C94   C93    1.36722       .     S
C93   C94    1.36722       .     S
C96   C93    1.49117       .     S
C93   C96    1.49117       .     S
C95   C94    1.40092       .     S
C94   C95    1.40092       .     S
H134  C94    0.93079       .     S
C94   H134   0.93079       .     S
H135  C95    0.93004       .     S
C95   H135   0.93004       .     S
C98   C97    1.38431       .     S
C97   C98    1.38431       .     S
C102  C97    1.40206       .     S
C97   C102   1.40206       .     S
C99   C98    1.38060       .     S
C98   C99    1.38060       .     S
H136  C98    0.93006       .     S
C98   H136   0.93006       .     S
C100  C99    1.39402       .     S
C99   C100   1.39402       .     S
H137  C99    0.92996       .     S
C99   H137   0.92996       .     S
C101  C100   1.38244       .     S
C100  C101   1.38244       .     S
C103  C100   1.46072       .     S
C100  C103   1.46072       .     S
C102  C101   1.38469       .     S
C101  C102   1.38469       .     S
H138  C101   0.92997       .     S
C101  H138   0.92997       .     S
H139  C102   0.93008       .     S
C102  H139   0.93008       .     S
C167  O140   1.24909       .     S
O140  C167   1.24909       .     S
C167  O141   1.28240       .     S
O141  C167   1.28240       .     S
H182  O141   0.82044       .     S
O141  H182   0.82044       .     S
C174  O142   1.30532       .     S
O142  C174   1.30532       .     S
H183  O142   0.81997       .     S
O142  H183   0.81997       .     S
C174  O143   1.16256       .     S
O143  C174   1.16256       .     S
C181  O144   1.29350       .     S
O144  C181   1.29350       .     S
H184  O144   0.81992       .     S
O144  H184   0.81992       .     S
C181  O145   1.25254       .     S
O145  C181   1.25254       .     S
C147  C146   1.20051       .     S
C146  C147   1.20051       .     S
C206  C146   1.37144       .     S
C146  C206   1.37144       .     S
C148  C147   1.42448       .     S
C147  C148   1.42448       .     S
C149  C148   1.39778       .     S
C148  C149   1.39778       .     S
C153  C148   1.40908       .     S
C148  C153   1.40908       .     S
C150  C149   1.39611       .     S
C149  C150   1.39611       .     S
H185  C149   0.93024       .     S
C149  H185   0.93024       .     S
C151  C150   1.41096       .     S
C150  C151   1.41096       .     S
C161  C150   1.48494       .     S
C150  C161   1.48494       .     S
C152  C151   1.39332       .     S
C151  C152   1.39332       .     S
C168  C151   1.50189       .     S
C151  C168   1.50189       .     S
C153  C152   1.37679       .     S
C152  C153   1.37679       .     S
H186  C152   0.93006       .     S
C152  H186   0.93006       .     S
C154  C153   1.43044       .     S
C153  C154   1.43044       .     S
C155  C154   1.20370       .     S
C154  C155   1.20370       .     S
C156  C155   1.36467       .     S
C155  C156   1.36467       .     S
C157  C156   1.20304       .     S
C156  C157   1.20304       .     S
C158  C157   1.42573       .     S
C157  C158   1.42573       .     S
C159  C158   1.38547       .     S
C158  C159   1.38547       .     S
C218  C158   1.41323       .     S
C158  C218   1.41323       .     S
C160  C159   1.39354       .     S
C159  C160   1.39354       .     S
H187  C159   0.92949       .     S
C159  H187   0.92949       .     S
C175  C160   1.49374       .     S
C160  C175   1.49374       .     S
C220  C160   1.39976       .     S
C160  C220   1.39976       .     S
C162  C161   1.38491       .     S
C161  C162   1.38491       .     S
C166  C161   1.40332       .     S
C161  C166   1.40332       .     S
C163  C162   1.38630       .     S
C162  C163   1.38630       .     S
H188  C162   0.92997       .     S
C162  H188   0.92997       .     S
C164  C163   1.38904       .     S
C163  C164   1.38904       .     S
H189  C163   0.93061       .     S
C163  H189   0.93061       .     S
C165  C164   1.39064       .     S
C164  C165   1.39064       .     S
C167  C164   1.48125       .     S
C164  C167   1.48125       .     S
C166  C165   1.38465       .     S
C165  C166   1.38465       .     S
H190  C165   0.93003       .     S
C165  H190   0.93003       .     S
H191  C166   0.93005       .     S
C166  H191   0.93005       .     S
C169  C168   1.37697       .     S
C168  C169   1.37697       .     S
C173  C168   1.37134       .     S
C168  C173   1.37134       .     S
C170  C169   1.37329       .     S
C169  C170   1.37329       .     S
H192  C169   0.93012       .     S
C169  H192   0.93012       .     S
C171  C170   1.35782       .     S
C170  C171   1.35782       .     S
H193  C170   0.93008       .     S
C170  H193   0.93008       .     S
C172  C171   1.36412       .     S
C171  C172   1.36412       .     S
C174  C171   1.49854       .     S
C171  C174   1.49854       .     S
C173  C172   1.37437       .     S
C172  C173   1.37437       .     S
H194  C172   0.92956       .     S
C172  H194   0.92956       .     S
H195  C173   0.93004       .     S
C173  H195   0.93004       .     S
C176  C175   1.38793       .     S
C175  C176   1.38793       .     S
C180  C175   1.37296   1_565     S
C175  C180   1.37296   1_545     S
C177  C176   1.39589   1_565     S
C176  C177   1.39590   1_545     S
H196  C176   0.93060       .     S
C176  H196   0.93060       .     S
C178  C177   1.33628       .     S
C177  C178   1.33628       .     S
H197  C177   0.93049       .     S
C177  H197   0.93049       .     S
C179  C178   1.43714       .     S
C178  C179   1.43714       .     S
C181  C178   1.48470       .     S
C178  C181   1.48470       .     S
C180  C179   1.39327       .     S
C179  C180   1.39327       .     S
H198  C179   0.93066       .     S
C179  H198   0.93066       .     S
H199  C180   0.92976       .     S
C180  H199   0.92976       .     S
C227  O200   1.24909       .     S
O200  C227   1.24909       .     S
C227  O201   1.28240       .     S
O201  C227   1.28240       .     S
H242  O201   0.82044       .     S
O201  H242   0.82044       .     S
C234  O202   1.30532       .     S
O202  C234   1.30532       .     S
H243  O202   0.81997       .     S
O202  H243   0.81997       .     S
C234  O203   1.16256       .     S
O203  C234   1.16256       .     S
C241  O204   1.29350       .     S
O204  C241   1.29350       .     S
H244  O204   0.81992       .     S
O204  H244   0.81992       .     S
C241  O205   1.25254       .     S
O205  C241   1.25254       .     S
C207  C206   1.20051       .     S
C206  C207   1.20051       .     S
C208  C207   1.42448       .     S
C207  C208   1.42448       .     S
C209  C208   1.39778       .     S
C208  C209   1.39778       .     S
C213  C208   1.40908       .     S
C208  C213   1.40908       .     S
C210  C209   1.39612       .     S
C209  C210   1.39612       .     S
H245  C209   0.93024       .     S
C209  H245   0.93024       .     S
C211  C210   1.41096       .     S
C210  C211   1.41096       .     S
C221  C210   1.48494       .     S
C210  C221   1.48494       .     S
C212  C211   1.39332       .     S
C211  C212   1.39332       .     S
C228  C211   1.50189       .     S
C211  C228   1.50189       .     S
C213  C212   1.37679       .     S
C212  C213   1.37679       .     S
H246  C212   0.93006       .     S
C212  H246   0.93006       .     S
C214  C213   1.43044       .     S
C213  C214   1.43044       .     S
C215  C214   1.20370       .     S
C214  C215   1.20370       .     S
C216  C215   1.36467       .     S
C215  C216   1.36467       .     S
C217  C216   1.20304       .     S
C216  C217   1.20304       .     S
C218  C217   1.42573       .     S
C217  C218   1.42573       .     S
C219  C218   1.38547       .     S
C218  C219   1.38547       .     S
C220  C219   1.39354       .     S
C219  C220   1.39354       .     S
H247  C219   0.92949       .     S
C219  H247   0.92949       .     S
C235  C220   1.49374       .     S
C220  C235   1.49374       .     S
C222  C221   1.38491       .     S
C221  C222   1.38491       .     S
C226  C221   1.40332       .     S
C221  C226   1.40332       .     S
C223  C222   1.38630       .     S
C222  C223   1.38630       .     S
H248  C222   0.92997       .     S
C222  H248   0.92997       .     S
C224  C223   1.38904       .     S
C223  C224   1.38904       .     S
H249  C223   0.93061       .     S
C223  H249   0.93061       .     S
C225  C224   1.39064       .     S
C224  C225   1.39064       .     S
C227  C224   1.48125       .     S
C224  C227   1.48125       .     S
C226  C225   1.38464       .     S
C225  C226   1.38464       .     S
H250  C225   0.93003       .     S
C225  H250   0.93003       .     S
H251  C226   0.93005       .     S
C226  H251   0.93005       .     S
C229  C228   1.37697       .     S
C228  C229   1.37697       .     S
C233  C228   1.37134       .     S
C228  C233   1.37134       .     S
C230  C229   1.37329       .     S
C229  C230   1.37329       .     S
H252  C229   0.93012       .     S
C229  H252   0.93012       .     S
C231  C230   1.35782       .     S
C230  C231   1.35782       .     S
H253  C230   0.93008       .     S
C230  H253   0.93008       .     S
C232  C231   1.36412       .     S
C231  C232   1.36412       .     S
C234  C231   1.49854       .     S
C231  C234   1.49854       .     S
C233  C232   1.37437       .     S
C232  C233   1.37437       .     S
H254  C232   0.92956       .     S
C232  H254   0.92956       .     S
H255  C233   0.93003       .     S
C233  H255   0.93003       .     S
C236  C235   1.38793       .     S
C235  C236   1.38793       .     S
C240  C235   1.37296   1_565     S
C235  C240   1.37295   1_545     S
C237  C236   1.39590   1_565     S
C236  C237   1.39590   1_545     S
H256  C236   0.93060       .     S
C236  H256   0.93060       .     S
C238  C237   1.33628       .     S
C237  C238   1.33628       .     S
H257  C237   0.93049       .     S
C237  H257   0.93049       .     S
C239  C238   1.43714       .     S
C238  C239   1.43714       .     S
C241  C238   1.48470       .     S
C238  C241   1.48470       .     S
C240  C239   1.39327       .     S
C239  C240   1.39327       .     S
H258  C239   0.93066       .     S
C239  H258   0.93066       .     S
H259  C240   0.92976       .     S
C240  H259   0.92976       .     S
