data_I
_chemical_name_common  '/data/user2/wty/HOF/MOFDiff/mofdiff/data/test/13-2d2_dm'
_cell_length_a 11.97350
_cell_length_b 17.28600
_cell_length_c 24.54090
_cell_angle_alpha 104.15200
_cell_angle_beta  90.94500
_cell_angle_gamma 97.87600
_space_group_name_H-M_alt      'P 1'


loop_
_space_group_symop_operation_xyz
  'x, y, z' 

loop_
_atom_site_label
_atom_site_fract_x
_atom_site_fract_y
_atom_site_fract_z
_atom_site_type_symbol
O0     0.27093  0.51919   0.4912     O
O1     0.34291  0.42138  0.43065     O
O2      0.9815  0.25463   0.1622     O
O3      0.9729  0.12017  0.14032     O
O4      0.9349  0.54441  0.15548     O
O5      0.7571   0.5718  0.15863     O
O6       0.519  0.52719  0.43736     O
O7     0.44315  0.63093  0.48833     O
O8      0.0741  0.11589  0.04688     O
O9      0.0427  0.24385  0.05939     O
O10     0.6496  0.45937  0.07353     O
O11     0.7083  0.54577  0.02155     O
C12     0.5783  0.19536  0.58732     C
C13     0.6252  0.19107  0.54417     C
C14     0.6812  0.18823  0.49298     C
C15     0.7853  0.23568  0.49331     C
C16     0.8418  0.23623  0.44392     C
C17     0.7918  0.18727  0.39222     C
C18     0.6888  0.13868   0.3921     C
C19     0.6317   0.1382  0.44143     C
C20     0.5252  0.08902  0.43991     C
C21     0.4346  0.04878   0.4402     C
C22     0.3321   0.0034  0.44088     C
C23     0.2412   0.9631  0.44175     C
C24     0.1364  0.91341  0.44248     C
C25     0.0905  0.85682  0.39364     C
C26     0.9889  0.80592  0.39277     C
C27     0.9286  0.81282  0.44235     C
C28     0.9741     0.87  0.49102     C
C29     0.0771  0.91948  0.49229     C
C30     0.1268  0.97129    0.544     C
C31     0.1739  0.01172  0.58762     C
C32     0.2285   0.0555  0.63698     C
C33     0.2763  0.09301  0.68077     C
C34      0.329   0.1443  0.73216     C
C35     0.2812  0.14269  0.78359     C
C36     0.3252  0.19631  0.83399     C
C37      0.422  0.25267  0.83335     C
C38     0.4707  0.25284  0.78209     C
C39     0.4256  0.20044  0.73142     C
C40      0.479  0.20193  0.68004     C
C41     0.5248  0.19954  0.63627     C
C42      0.953  0.28885  0.44885     C
C43     0.9649  0.36687  0.48403     C
C44     0.0678  0.41742  0.48877     C
C45     0.1572  0.39186  0.45795     C
C46     0.1471  0.31347  0.42399     C
C47     0.0452  0.26234  0.41966     C
C48     0.2627  0.44977   0.4615     C
C49     0.8411  0.18697  0.33713     C
C50     0.8716  0.25938  0.32158     C
C51     0.9104  0.25869  0.26852     C
C52      0.921  0.18589  0.23063     C
C53      0.893  0.11349  0.24609     C
C54     0.8523  0.11442  0.29902     C
C55     0.9608  0.18424  0.17353     C
C56       0.95  0.74689  0.33844     C
C57     0.0265  0.69929  0.31019     C
C58     0.9955  0.64552  0.25821     C
C59     0.8882   0.6393   0.2341     C
C60      0.811  0.68612  0.26237     C
C61     0.8413  0.73933  0.31418     C
C62     0.8532   0.5822  0.17857     C
C63     0.8224  0.75887  0.44585     C
C64     0.8136   0.6763   0.4222     C
C65      0.715  0.62595   0.4267     C
C66      0.626  0.65704  0.45564     C
C67     0.6347  0.73935  0.48052     C
C68     0.7331     0.79   0.4752     C
C69     0.5239  0.59987  0.45979     C
C70      0.263  0.19346   0.8856     C
C71     0.2304  0.11951  0.89837     C
C72     0.1704  0.11599  0.94595     C
C73     0.1428  0.18632  0.98065     C
C74     0.1718  0.26011  0.96721     C
C75     0.2321  0.26378  0.91992     C
C76     0.0813  0.18406  0.03234     C
C77     0.4793  0.31035  0.88475     C
C78     0.4996  0.28691  0.93377     C
C79     0.5554    0.343  0.98043     C
C80     0.5938   0.4213  0.97735     C
C81     0.5753   0.4448  0.92879     C
C82     0.5165  0.39001  0.88275     C
C83     0.6567   0.4836  0.02547     C
H84    0.39409  0.45819  0.43079     H
H85    0.81825  0.26789  0.52736     H
H86      0.994  0.24856  0.12878     H
H87    0.90831  0.50544  0.13011     H
H88    0.65688  0.10547  0.35815     H
H89    0.38734  0.59649   0.4848     H
H90    0.04024  0.11941  0.07595     H
H91    0.68265  0.49499   0.0994     H
H92    0.12887  0.85292  0.36065     H
H93    0.93445  0.87527  0.52368     H
H94    0.21828  0.10487  0.78423     H
H95    0.53541  0.28913  0.78166     H
H96    0.90447  0.38495  0.50418     H
H97    0.07628  0.46876   0.5129     H
H98    0.20814  0.29545  0.40433     H
H99     0.0384  0.21001  0.39709     H
H100   0.86589  0.30821  0.34695     H
H101   0.92936  0.30697  0.25822     H
H102   0.90144  0.06485  0.22117     H
H103   0.83242  0.06605  0.30907     H
H104   0.09876  0.70348  0.32616     H
H105   0.04677  0.61377  0.23969     H
H106   0.73873  0.68159  0.24634     H
H107   0.78927  0.77016  0.33291     H
H108   0.87355  0.65486  0.40343     H
H109   0.70872  0.57095  0.41017     H
H110   0.57565  0.76031  0.50044     H
H111   0.73909  0.84508   0.4914     H
H112   0.24884  0.07245  0.87498     H
H113    0.1489   0.0667  0.95449     H
H114    0.1507  0.30677  0.98991     H
H115   0.25196  0.31298  0.91102     H
H116   0.47606  0.23407  0.93555     H
H117   0.56696  0.32778  0.01368     H
H118   0.60183  0.49711   0.9267     H
H119   0.50184  0.40643  0.85031     H
Cl120   0.3237   0.6416   0.3035    Cl
Cl121    0.156   0.4355  0.12538    Cl
C122    0.2242  0.56199  0.30759     C
C123    0.1462   0.4927  0.29184     C
C124     0.124  0.45307  0.23517     C
C125    0.1803  0.48562  0.19498     C
C126    0.2547   0.5557  0.21068     C
C127    0.2776  0.59465  0.26754     C
H128   0.07267  0.40587  0.22451     H
H129   0.29026  0.57754   0.1833     H
Cl130   0.2568  0.60824  0.37795    Cl
Cl131   0.0773  0.45198  0.34231    Cl
Cl132    0.146   0.5405   0.3673    Cl
Cl133    0.172   0.4384   0.1153    Cl
Cl134   0.3947    0.309  0.09328    Cl
Cl135  0.24256  0.29531  0.26778    Cl
C136    0.3695   0.3349   0.1847     C
C137    0.3442   0.3543   0.2439     C
C138    0.4049    0.425  0.27734     C
C139    0.4813   0.4703   0.2528     C
C140    0.5034   0.4511    0.199     C
C141    0.4497   0.3853   0.1653     C
H142   0.39364  0.44094  0.31563     H
Cl143  0.54823  0.56223  0.30272    Cl
Cl144   0.5623   0.5522   0.2695    Cl
Cl145   0.2984  0.24922  0.13935    Cl
Cl146   0.2586   0.2216   0.1752    Cl
O147    0.9177   0.4661   0.0515     O
H148   0.92653  0.44655  0.02872     H
O149    0.8801   0.4136   0.0773     O
H150   0.87212   0.3765  0.06589     H
C151    0.8863   0.4007   0.0363     C
N152    0.8637   0.3482  0.98677     N
C153    0.8823   0.3752    0.937     C
C154    0.8233   0.2648   0.9844     C
H155   0.94481   0.3526  0.91855     H
H156   0.89896  0.43295  0.94657     H
H157   0.81584  0.35816  0.91228     H
H158   0.75456  0.24783   0.9613     H
H159   0.80928  0.25892  0.02169     H
H160   0.87912  0.23205  0.96863     H
Cl161   0.7846   0.4375   0.2556    Cl
Cl162   0.8053   0.4241   0.2186    Cl
Cl163   0.4982    0.272   0.3759    Cl
Cl164   0.8086  0.47239   0.2958    Cl
Cl165   0.4416  0.19622  0.32977    Cl
C166     0.663   0.3264   0.2508     C
C167    0.7072   0.3965   0.3025     C
C168    0.6628   0.3893   0.3522     C
C169     0.585   0.3316   0.3612     C
C170     0.548   0.2766   0.3199     C
C171    0.5772   0.2657   0.2669     C
H172   0.69049  0.42986  0.38385     H
H173   0.54416   0.2203  0.23984     H
Cl174   0.6612   0.2561  0.17081    Cl
Cl175   0.7121   0.3304  0.18935    Cl
loop_
_geom_bond_atom_site_label_1
_geom_bond_atom_site_label_2
_geom_bond_distance
_geom_bond_site_symmetry_2
_ccdc_geom_bond_type
H84   O6     1.75914       .     S
O6    H84    1.75914       .     S
H86   O9     1.79568   1_655     S
O9    H86    1.79568   1_455     S
H87   O147   1.89297       .     S
O147  H87    1.89297       .     S
H87   O149   1.77385       .     S
O149  H87    1.77385       .     S
H89   O0     1.83093       .     S
O0    H89    1.83093       .     S
H90   O3     1.78340   1_455     S
O3    H90    1.78340   1_655     S
H91   O5     1.83290       .     S
O5    H91    1.83290       .     S
H148  N152   1.81223   1_554     S
N152  H148   1.81223   1_556     S
H150  N152   1.88020   1_554     S
N152  H150   1.88020   1_556     S
O0    C48    1.23227       .     S
C48   O0     1.23227       .     S
O1    C48    1.30685       .     S
C48   O1     1.30685       .     S
O1    H84    0.82001       .     S
H84   O1     0.82001       .     S
O2    C55    1.30549       .     S
C55   O2     1.30549       .     S
O2    H86    0.81996       .     S
H86   O2     0.81996       .     S
O3    C55    1.23219       .     S
C55   O3     1.23219       .     S
O4    C62    1.31041       .     S
C62   O4     1.31041       .     S
O4    H87    0.81999       .     S
H87   O4     0.81999       .     S
O5    C62    1.21552       .     S
C62   O5     1.21552       .     S
O6    C69    1.23508       .     S
C69   O6     1.23508       .     S
O7    C69    1.30168       .     S
C69   O7     1.30168       .     S
O7    H89    0.81995       .     S
H89   O7     0.81995       .     S
O8    C76    1.30466       .     S
C76   O8     1.30466       .     S
O8    H90    0.81981       .     S
H90   O8     0.81981       .     S
O9    C76    1.23612       .     S
C76   O9     1.23612       .     S
O10   C83    1.34493       .     S
C83   O10    1.34493       .     S
O10   H91    0.82010       .     S
H91   O10    0.82010       .     S
O11   C83    1.19014       .     S
C83   O11    1.19014       .     S
C12   C13    1.19784       .     S
C13   C12    1.19784       .     S
C12   C41    1.36171       .     S
C41   C12    1.36171       .     S
C13   C14    1.42717       .     S
C14   C13    1.42717       .     S
C14   C15    1.39380       .     S
C15   C14    1.39380       .     S
C14   C19    1.41401       .     S
C19   C14    1.41401       .     S
C15   C16    1.39921       .     S
C16   C15    1.39921       .     S
C15   H85    0.93023       .     S
H85   C15    0.93023       .     S
C16   C17    1.41261       .     S
C17   C16    1.41261       .     S
C16   C42    1.49122       .     S
C42   C16    1.49122       .     S
C17   C18    1.39328       .     S
C18   C17    1.39328       .     S
C17   C49    1.48324       .     S
C49   C17    1.48324       .     S
C18   C19    1.40132       .     S
C19   C18    1.40132       .     S
C18   H88    0.93020       .     S
H88   C18    0.93020       .     S
C19   C20    1.42689       .     S
C20   C19    1.42689       .     S
C20   C21    1.20688       .     S
C21   C20    1.20688       .     S
C21   C22    1.36568       .     S
C22   C21    1.36568       .     S
C22   C23    1.21268   1_545     S
C23   C22    1.21268   1_565     S
C23   C24    1.42322       .     S
C24   C23    1.42322       .     S
C24   C25    1.39755       .     S
C25   C24    1.39755       .     S
C24   C29    1.41269       .     S
C29   C24    1.41269       .     S
C25   C26    1.39682   1_455     S
C26   C25    1.39682   1_655     S
C25   H92    0.93013       .     S
H92   C25    0.93013       .     S
C26   C27    1.41336       .     S
C27   C26    1.41336       .     S
C26   C56    1.48991       .     S
C56   C26    1.48991       .     S
C27   C28    1.39787       .     S
C28   C27    1.39787       .     S
C27   C63    1.48721       .     S
C63   C27    1.48721       .     S
C28   C29    1.39646   1_655     S
C29   C28    1.39646   1_455     S
C28   H93    0.92995       .     S
H93   C28    0.92995       .     S
C29   C30    1.42824       .     S
C30   C29    1.42824       .     S
C30   C31    1.20774   1_565     S
C31   C30    1.20774   1_545     S
C31   C32    1.36289       .     S
C32   C31    1.36289       .     S
C32   C33    1.20006       .     S
C33   C32    1.20006       .     S
C33   C34    1.43123       .     S
C34   C33    1.43123       .     S
C34   C35    1.39928       .     S
C35   C34    1.39928       .     S
C34   C39    1.40769       .     S
C39   C34    1.40769       .     S
C35   C36    1.39663       .     S
C36   C35    1.39663       .     S
C35   H94    0.93040       .     S
H94   C35    0.93040       .     S
C36   C37    1.41116       .     S
C37   C36    1.41116       .     S
C36   C70    1.48755       .     S
C70   C36    1.48755       .     S
C37   C38    1.39572       .     S
C38   C37    1.39572       .     S
C37   C77    1.49163       .     S
C77   C37    1.49163       .     S
C38   C39    1.39691       .     S
C39   C38    1.39691       .     S
C38   H95    0.92965       .     S
H95   C38    0.92965       .     S
C39   C40    1.42735       .     S
C40   C39    1.42735       .     S
C40   C41    1.20838       .     S
C41   C40    1.20838       .     S
C42   C43    1.39945       .     S
C43   C42    1.39945       .     S
C42   C47    1.39502   1_655     S
C47   C42    1.39502   1_455     S
C43   C44    1.39485   1_655     S
C44   C43    1.39485   1_455     S
C43   H96    0.92949       .     S
H96   C43    0.92949       .     S
C44   C45    1.38058       .     S
C45   C44    1.38058       .     S
C44   H97    0.93001       .     S
H97   C44    0.93001       .     S
C45   C46    1.39460       .     S
C46   C45    1.39460       .     S
C45   C48    1.48745       .     S
C48   C45    1.48745       .     S
C46   C47    1.39117       .     S
C47   C46    1.39117       .     S
C46   H98    0.92979       .     S
H98   C46    0.92979       .     S
C47   H99    0.93006       .     S
H99   C47    0.93006       .     S
C49   C50    1.39950       .     S
C50   C49    1.39950       .     S
C49   C54    1.39361       .     S
C54   C49    1.39361       .     S
C50   C51    1.38759       .     S
C51   C50    1.38759       .     S
C50   H100   0.93006       .     S
H100  C50    0.93006       .     S
C51   C52    1.39278       .     S
C52   C51    1.39278       .     S
C51   H101   0.93009       .     S
H101  C51    0.93009       .     S
C52   C53    1.39428       .     S
C53   C52    1.39428       .     S
C52   C55    1.48247       .     S
C55   C52    1.48247       .     S
C53   C54    1.39206       .     S
C54   C53    1.39206       .     S
C53   H102   0.93007       .     S
H102  C53    0.93007       .     S
C54   H103   0.92996       .     S
H103  C54    0.92996       .     S
C56   C57    1.39471   1_655     S
C57   C56    1.39471   1_455     S
C56   C61    1.39831       .     S
C61   C56    1.39831       .     S
C57   C58    1.39247   1_455     S
C58   C57    1.39247   1_655     S
C57   H104   0.93015       .     S
H104  C57    0.93015       .     S
C58   C59    1.38499       .     S
C59   C58    1.38499       .     S
C58   H105   0.92962   1_655     S
H105  C58    0.92962   1_455     S
C59   C60    1.39369       .     S
C60   C59    1.39369       .     S
C59   C62    1.48897       .     S
C62   C59    1.48897       .     S
C60   C61    1.38410       .     S
C61   C60    1.38410       .     S
C60   H106   0.92995       .     S
H106  C60    0.92995       .     S
C61   H107   0.92954       .     S
H107  C61    0.92954       .     S
C63   C64    1.39171       .     S
C64   C63    1.39171       .     S
C63   C68    1.39470       .     S
C68   C63    1.39470       .     S
C64   C65    1.39039       .     S
C65   C64    1.39039       .     S
C64   H108   0.93012       .     S
H108  C64    0.93012       .     S
C65   C66    1.38712       .     S
C66   C65    1.38712       .     S
C65   H109   0.93001       .     S
H109  C65    0.93001       .     S
C66   C67    1.39303       .     S
C67   C66    1.39303       .     S
C66   C69    1.48449       .     S
C69   C66    1.48449       .     S
C67   C68    1.39643       .     S
C68   C67    1.39643       .     S
C67   H110   0.93013       .     S
H110  C67    0.93013       .     S
C68   H111   0.93004       .     S
H111  C68    0.93004       .     S
C70   C71    1.39564       .     S
C71   C70    1.39564       .     S
C70   C75    1.39883       .     S
C75   C70    1.39883       .     S
C71   C72    1.39056       .     S
C72   C71    1.39056       .     S
C71   H112   0.93009       .     S
H112  C71    0.93009       .     S
C72   C73    1.38763       .     S
C73   C72    1.38763       .     S
C72   H113   0.93012       .     S
H113  C72    0.93012       .     S
C73   C74    1.39444       .     S
C74   C73    1.39444       .     S
C73   C76    1.48326   1_556     S
C76   C73    1.48326   1_554     S
C74   C75    1.38681       .     S
C75   C74    1.38681       .     S
C74   H114   0.93031       .     S
H114  C74    0.93031       .     S
C75   H115   0.92988       .     S
H115  C75    0.92988       .     S
C77   C78    1.38786       .     S
C78   C77    1.38786       .     S
C77   C82    1.40094       .     S
C82   C77    1.40094       .     S
C78   C79    1.39714       .     S
C79   C78    1.39714       .     S
C78   H116   0.93005       .     S
H116  C78    0.93005       .     S
C79   C80    1.38913       .     S
C80   C79    1.38913       .     S
C79   H117   0.93029   1_556     S
H117  C79    0.93029   1_554     S
C80   C81    1.37365       .     S
C81   C80    1.37365       .     S
C80   C83    1.49934   1_556     S
C83   C80    1.49934   1_554     S
C81   C82    1.39177       .     S
C82   C81    1.39177       .     S
C81   H118   0.93041       .     S
H118  C81    0.93041       .     S
C82   H119   0.92989       .     S
H119  C82    0.92989       .     S
Cl120 C122   1.71620       .     S
C122  Cl120  1.71620       .     S
Cl120 C127   1.11941       .     S
C127  Cl120  1.11941       .     S
Cl120 Cl130  2.17928       .     S
Cl130 Cl120  2.17928       .     S
Cl121 C125   1.71569       .     S
C125  Cl121  1.71569       .     S
Cl121 Cl133  0.32466       .     S
Cl133 Cl121  0.32466       .     S
C122  C123   1.38252       .     S
C123  C122   1.38252       .     S
C122  C127   1.37357       .     S
C127  C122   1.37357       .     S
C122  Cl130  1.72923       .     S
Cl130 C122   1.72923       .     S
C122  Cl132  1.83794       .     S
Cl132 C122   1.83794       .     S
C123  C124   1.39503       .     S
C124  C123   1.39503       .     S
C123  Cl131  1.73522       .     S
Cl131 C123   1.73522       .     S
C123  Cl132  1.83428       .     S
Cl132 C123   1.83428       .     S
C124  C125   1.39037       .     S
C125  C124   1.39037       .     S
C124  H128   0.92992       .     S
H128  C124   0.92992       .     S
C125  C126   1.36902       .     S
C126  C125   1.36902       .     S
C125  Cl133  1.92111       .     S
Cl133 C125   1.92111       .     S
C126  C127   1.39750       .     S
C127  C126   1.39750       .     S
C126  H129   0.92991       .     S
H129  C126   0.92991       .     S
Cl130 Cl132  1.61637       .     S
Cl132 Cl130  1.61637       .     S
Cl131 Cl132  1.60426       .     S
Cl132 Cl131  1.60426       .     S
Cl134 C141   1.96996       .     S
C141  Cl134  1.96996       .     S
Cl134 Cl145  1.99082       .     S
Cl145 Cl134  1.99082       .     S
Cl135 C137   1.68521       .     S
C137  Cl135  1.68521       .     S
C136  C137   1.45569       .     S
C137  C136   1.45569       .     S
C136  C141   1.37711       .     S
C141  C136   1.37711       .     S
C136  Cl145  1.72456       .     S
Cl145 C136   1.72456       .     S
C137  C138   1.39346       .     S
C138  C137   1.39346       .     S
C138  C139   1.36570       .     S
C139  C138   1.36570       .     S
C138  H142   0.92996       .     S
H142  C138   0.92996       .     S
C139  C140   1.32086       .     S
C140  C139   1.32086       .     S
C139  Cl143  1.82618       .     S
Cl143 C139   1.82618       .     S
C139  Cl144  1.56196       .     S
Cl144 C139   1.56196       .     S
C140  C141   1.30888       .     S
C141  C140   1.30888       .     S
Cl143 Cl144  0.81639       .     S
Cl144 Cl143  0.81639       .     S
Cl145 Cl146  1.17726       .     S
Cl146 Cl145  1.17726       .     S
O147  H148   0.59772       .     S
H148  O147   0.59772       .     S
O147  O149   1.26711       .     S
O149  O147   1.26711       .     S
O147  C151   1.10960       .     S
C151  O147   1.10960       .     S
H148  C151   0.93017       .     S
C151  H148   0.93017       .     S
O149  H150   0.62716       .     S
H150  O149   0.62716       .     S
O149  C151   0.98230       .     S
C151  O149   0.98230       .     S
H150  C151   0.92967       .     S
C151  H150   0.92967       .     S
C151  N152   1.32542   1_554     S
N152  C151   1.32542   1_556     S
N152  C153   1.42073       .     S
C153  N152   1.42073       .     S
N152  C154   1.44315       .     S
C154  N152   1.44315       .     S
C153  H155   0.96054       .     S
H155  C153   0.96054       .     S
C153  H156   0.95954       .     S
H156  C153   0.95954       .     S
C153  H157   0.95942       .     S
H157  C153   0.95942       .     S
C154  H158   0.96019       .     S
H158  C154   0.96019       .     S
C154  H159   0.96013   1_556     S
H159  C154   0.96013   1_554     S
C154  H160   0.96024       .     S
H160  C154   0.96024       .     S
Cl161 Cl162  0.92730       .     S
Cl162 Cl161  0.92730       .     S
Cl161 Cl164  1.03527       .     S
Cl164 Cl161  1.03527       .     S
Cl161 C167   1.71463       .     S
C167  Cl161  1.71463       .     S
Cl161 Cl175  2.20579       .     S
Cl175 Cl161  2.20579       .     S
Cl162 Cl164  1.87160       .     S
Cl164 Cl162  1.87160       .     S
Cl162 Cl175  1.81485       .     S
Cl175 Cl162  1.81485       .     S
Cl163 Cl165  1.56941       .     S
Cl165 Cl163  1.56941       .     S
Cl163 C169   1.47389       .     S
C169  Cl163  1.47389       .     S
Cl163 C170   1.52250       .     S
C170  Cl163  1.52250       .     S
Cl164 C167   1.70223       .     S
C167  Cl164  1.70223       .     S
Cl165 C170   1.81711       .     S
C170  Cl165  1.81711       .     S
C166  C167   1.55193       .     S
C167  C166   1.55193       .     S
C166  C171   1.49437       .     S
C171  C166   1.49437       .     S
C166  Cl175  1.64124       .     S
Cl175 C166   1.64124       .     S
C167  C168   1.36500       .     S
C168  C167   1.36500       .     S
C168  C169   1.33088       .     S
C169  C168   1.33088       .     S
C168  H172   0.93075       .     S
H172  C168   0.93075       .     S
C169  C170   1.23531       .     S
C170  C169   1.23531       .     S
C170  C171   1.32766       .     S
C171  C170   1.32766       .     S
C171  H173   0.92994       .     S
H173  C171   0.92994       .     S
Cl174 Cl175  1.31095       .     S
Cl175 Cl174  1.31095       .     S
O6    H84    1.75914       .     S
H84   O6     1.75914       .     S
O9    H86    1.79568   1_455     S
H86   O9     1.79568   1_655     S
O147  H87    1.89297       .     S
H87   O147   1.89297       .     S
O149  H87    1.77385       .     S
H87   O149   1.77385       .     S
O0    H89    1.83093       .     S
H89   O0     1.83093       .     S
O3    H90    1.78340   1_655     S
H90   O3     1.78340   1_455     S
O5    H91    1.83290       .     S
H91   O5     1.83290       .     S
N152  H148   1.81223   1_556     S
H148  N152   1.81223   1_554     S
N152  H150   1.88020   1_556     S
H150  N152   1.88020   1_554     S
C48   O0     1.23227       .     S
O0    C48    1.23227       .     S
C48   O1     1.30685       .     S
O1    C48    1.30685       .     S
H84   O1     0.82001       .     S
O1    H84    0.82001       .     S
C55   O2     1.30549       .     S
O2    C55    1.30549       .     S
H86   O2     0.81996       .     S
O2    H86    0.81996       .     S
C55   O3     1.23219       .     S
O3    C55    1.23219       .     S
C62   O4     1.31041       .     S
O4    C62    1.31041       .     S
H87   O4     0.81999       .     S
O4    H87    0.81999       .     S
C62   O5     1.21552       .     S
O5    C62    1.21552       .     S
C69   O6     1.23508       .     S
O6    C69    1.23508       .     S
C69   O7     1.30168       .     S
O7    C69    1.30168       .     S
H89   O7     0.81995       .     S
O7    H89    0.81995       .     S
C76   O8     1.30466       .     S
O8    C76    1.30466       .     S
H90   O8     0.81981       .     S
O8    H90    0.81981       .     S
C76   O9     1.23612       .     S
O9    C76    1.23612       .     S
C83   O10    1.34493       .     S
O10   C83    1.34493       .     S
H91   O10    0.82010       .     S
O10   H91    0.82010       .     S
C83   O11    1.19014       .     S
O11   C83    1.19014       .     S
C13   C12    1.19784       .     S
C12   C13    1.19784       .     S
C41   C12    1.36171       .     S
C12   C41    1.36171       .     S
C14   C13    1.42717       .     S
C13   C14    1.42717       .     S
C15   C14    1.39380       .     S
C14   C15    1.39380       .     S
C19   C14    1.41401       .     S
C14   C19    1.41401       .     S
C16   C15    1.39921       .     S
C15   C16    1.39921       .     S
H85   C15    0.93023       .     S
C15   H85    0.93023       .     S
C17   C16    1.41261       .     S
C16   C17    1.41261       .     S
C42   C16    1.49122       .     S
C16   C42    1.49122       .     S
C18   C17    1.39328       .     S
C17   C18    1.39328       .     S
C49   C17    1.48324       .     S
C17   C49    1.48324       .     S
C19   C18    1.40132       .     S
C18   C19    1.40132       .     S
H88   C18    0.93020       .     S
C18   H88    0.93020       .     S
C20   C19    1.42689       .     S
C19   C20    1.42689       .     S
C21   C20    1.20688       .     S
C20   C21    1.20688       .     S
C22   C21    1.36568       .     S
C21   C22    1.36568       .     S
C23   C22    1.21268   1_565     S
C22   C23    1.21268   1_545     S
C24   C23    1.42322       .     S
C23   C24    1.42322       .     S
C25   C24    1.39755       .     S
C24   C25    1.39755       .     S
C29   C24    1.41269       .     S
C24   C29    1.41269       .     S
C26   C25    1.39682   1_655     S
C25   C26    1.39682   1_455     S
H92   C25    0.93013       .     S
C25   H92    0.93013       .     S
C27   C26    1.41336       .     S
C26   C27    1.41336       .     S
C56   C26    1.48991       .     S
C26   C56    1.48991       .     S
C28   C27    1.39787       .     S
C27   C28    1.39787       .     S
C63   C27    1.48721       .     S
C27   C63    1.48721       .     S
C29   C28    1.39646   1_455     S
C28   C29    1.39646   1_655     S
H93   C28    0.92995       .     S
C28   H93    0.92995       .     S
C30   C29    1.42824       .     S
C29   C30    1.42824       .     S
C31   C30    1.20774   1_545     S
C30   C31    1.20774   1_565     S
C32   C31    1.36289       .     S
C31   C32    1.36289       .     S
C33   C32    1.20006       .     S
C32   C33    1.20006       .     S
C34   C33    1.43123       .     S
C33   C34    1.43123       .     S
C35   C34    1.39928       .     S
C34   C35    1.39928       .     S
C39   C34    1.40769       .     S
C34   C39    1.40769       .     S
C36   C35    1.39663       .     S
C35   C36    1.39663       .     S
H94   C35    0.93040       .     S
C35   H94    0.93040       .     S
C37   C36    1.41116       .     S
C36   C37    1.41116       .     S
C70   C36    1.48755       .     S
C36   C70    1.48755       .     S
C38   C37    1.39572       .     S
C37   C38    1.39572       .     S
C77   C37    1.49163       .     S
C37   C77    1.49163       .     S
C39   C38    1.39691       .     S
C38   C39    1.39691       .     S
H95   C38    0.92965       .     S
C38   H95    0.92965       .     S
C40   C39    1.42735       .     S
C39   C40    1.42735       .     S
C41   C40    1.20838       .     S
C40   C41    1.20838       .     S
C43   C42    1.39945       .     S
C42   C43    1.39945       .     S
C47   C42    1.39502   1_455     S
C42   C47    1.39502   1_655     S
C44   C43    1.39485   1_455     S
C43   C44    1.39485   1_655     S
H96   C43    0.92949       .     S
C43   H96    0.92949       .     S
C45   C44    1.38058       .     S
C44   C45    1.38058       .     S
H97   C44    0.93001       .     S
C44   H97    0.93001       .     S
C46   C45    1.39460       .     S
C45   C46    1.39460       .     S
C48   C45    1.48745       .     S
C45   C48    1.48745       .     S
C47   C46    1.39117       .     S
C46   C47    1.39117       .     S
H98   C46    0.92979       .     S
C46   H98    0.92979       .     S
H99   C47    0.93006       .     S
C47   H99    0.93006       .     S
C50   C49    1.39950       .     S
C49   C50    1.39950       .     S
C54   C49    1.39361       .     S
C49   C54    1.39361       .     S
C51   C50    1.38759       .     S
C50   C51    1.38759       .     S
H100  C50    0.93006       .     S
C50   H100   0.93006       .     S
C52   C51    1.39278       .     S
C51   C52    1.39278       .     S
H101  C51    0.93009       .     S
C51   H101   0.93009       .     S
C53   C52    1.39428       .     S
C52   C53    1.39428       .     S
C55   C52    1.48247       .     S
C52   C55    1.48247       .     S
C54   C53    1.39206       .     S
C53   C54    1.39206       .     S
H102  C53    0.93007       .     S
C53   H102   0.93007       .     S
H103  C54    0.92996       .     S
C54   H103   0.92996       .     S
C57   C56    1.39471   1_455     S
C56   C57    1.39471   1_655     S
C61   C56    1.39831       .     S
C56   C61    1.39831       .     S
C58   C57    1.39247   1_655     S
C57   C58    1.39247   1_455     S
H104  C57    0.93015       .     S
C57   H104   0.93015       .     S
C59   C58    1.38499       .     S
C58   C59    1.38499       .     S
H105  C58    0.92962   1_455     S
C58   H105   0.92962   1_655     S
C60   C59    1.39369       .     S
C59   C60    1.39369       .     S
C62   C59    1.48897       .     S
C59   C62    1.48897       .     S
C61   C60    1.38410       .     S
C60   C61    1.38410       .     S
H106  C60    0.92995       .     S
C60   H106   0.92995       .     S
H107  C61    0.92954       .     S
C61   H107   0.92954       .     S
C64   C63    1.39171       .     S
C63   C64    1.39171       .     S
C68   C63    1.39470       .     S
C63   C68    1.39470       .     S
C65   C64    1.39039       .     S
C64   C65    1.39039       .     S
H108  C64    0.93012       .     S
C64   H108   0.93012       .     S
C66   C65    1.38712       .     S
C65   C66    1.38712       .     S
H109  C65    0.93001       .     S
C65   H109   0.93001       .     S
C67   C66    1.39303       .     S
C66   C67    1.39303       .     S
C69   C66    1.48449       .     S
C66   C69    1.48449       .     S
C68   C67    1.39643       .     S
C67   C68    1.39643       .     S
H110  C67    0.93013       .     S
C67   H110   0.93013       .     S
H111  C68    0.93004       .     S
C68   H111   0.93004       .     S
C71   C70    1.39564       .     S
C70   C71    1.39564       .     S
C75   C70    1.39883       .     S
C70   C75    1.39883       .     S
C72   C71    1.39056       .     S
C71   C72    1.39056       .     S
H112  C71    0.93009       .     S
C71   H112   0.93009       .     S
C73   C72    1.38763       .     S
C72   C73    1.38763       .     S
H113  C72    0.93012       .     S
C72   H113   0.93012       .     S
C74   C73    1.39444       .     S
C73   C74    1.39444       .     S
C76   C73    1.48326   1_554     S
C73   C76    1.48326   1_556     S
C75   C74    1.38681       .     S
C74   C75    1.38681       .     S
H114  C74    0.93031       .     S
C74   H114   0.93031       .     S
H115  C75    0.92988       .     S
C75   H115   0.92988       .     S
C78   C77    1.38786       .     S
C77   C78    1.38786       .     S
C82   C77    1.40094       .     S
C77   C82    1.40094       .     S
C79   C78    1.39714       .     S
C78   C79    1.39714       .     S
H116  C78    0.93005       .     S
C78   H116   0.93005       .     S
C80   C79    1.38913       .     S
C79   C80    1.38913       .     S
H117  C79    0.93029   1_554     S
C79   H117   0.93029   1_556     S
C81   C80    1.37365       .     S
C80   C81    1.37365       .     S
C83   C80    1.49934   1_554     S
C80   C83    1.49934   1_556     S
C82   C81    1.39177       .     S
C81   C82    1.39177       .     S
H118  C81    0.93041       .     S
C81   H118   0.93041       .     S
H119  C82    0.92989       .     S
C82   H119   0.92989       .     S
C122  Cl120  1.71620       .     S
Cl120 C122   1.71620       .     S
C127  Cl120  1.11941       .     S
Cl120 C127   1.11941       .     S
Cl130 Cl120  2.17928       .     S
Cl120 Cl130  2.17928       .     S
C125  Cl121  1.71569       .     S
Cl121 C125   1.71569       .     S
Cl133 Cl121  0.32466       .     S
Cl121 Cl133  0.32466       .     S
C123  C122   1.38252       .     S
C122  C123   1.38252       .     S
C127  C122   1.37357       .     S
C122  C127   1.37357       .     S
Cl130 C122   1.72923       .     S
C122  Cl130  1.72923       .     S
Cl132 C122   1.83794       .     S
C122  Cl132  1.83794       .     S
C124  C123   1.39503       .     S
C123  C124   1.39503       .     S
Cl131 C123   1.73522       .     S
C123  Cl131  1.73522       .     S
Cl132 C123   1.83428       .     S
C123  Cl132  1.83428       .     S
C125  C124   1.39037       .     S
C124  C125   1.39037       .     S
H128  C124   0.92992       .     S
C124  H128   0.92992       .     S
C126  C125   1.36902       .     S
C125  C126   1.36902       .     S
Cl133 C125   1.92111       .     S
C125  Cl133  1.92111       .     S
C127  C126   1.39750       .     S
C126  C127   1.39750       .     S
H129  C126   0.92991       .     S
C126  H129   0.92991       .     S
Cl132 Cl130  1.61637       .     S
Cl130 Cl132  1.61637       .     S
Cl132 Cl131  1.60426       .     S
Cl131 Cl132  1.60426       .     S
C141  Cl134  1.96996       .     S
Cl134 C141   1.96996       .     S
Cl145 Cl134  1.99082       .     S
Cl134 Cl145  1.99082       .     S
C137  Cl135  1.68521       .     S
Cl135 C137   1.68521       .     S
C137  C136   1.45569       .     S
C136  C137   1.45569       .     S
C141  C136   1.37711       .     S
C136  C141   1.37711       .     S
Cl145 C136   1.72456       .     S
C136  Cl145  1.72456       .     S
C138  C137   1.39346       .     S
C137  C138   1.39346       .     S
C139  C138   1.36570       .     S
C138  C139   1.36570       .     S
H142  C138   0.92996       .     S
C138  H142   0.92996       .     S
C140  C139   1.32086       .     S
C139  C140   1.32086       .     S
Cl143 C139   1.82618       .     S
C139  Cl143  1.82618       .     S
Cl144 C139   1.56196       .     S
C139  Cl144  1.56196       .     S
C141  C140   1.30888       .     S
C140  C141   1.30888       .     S
Cl144 Cl143  0.81639       .     S
Cl143 Cl144  0.81639       .     S
Cl146 Cl145  1.17726       .     S
Cl145 Cl146  1.17726       .     S
H148  O147   0.59772       .     S
O147  H148   0.59772       .     S
O149  O147   1.26711       .     S
O147  O149   1.26711       .     S
C151  O147   1.10960       .     S
O147  C151   1.10960       .     S
C151  H148   0.93017       .     S
H148  C151   0.93017       .     S
H150  O149   0.62716       .     S
O149  H150   0.62716       .     S
C151  O149   0.98230       .     S
O149  C151   0.98230       .     S
C151  H150   0.92967       .     S
H150  C151   0.92967       .     S
N152  C151   1.32542   1_556     S
C151  N152   1.32542   1_554     S
C153  N152   1.42073       .     S
N152  C153   1.42073       .     S
C154  N152   1.44315       .     S
N152  C154   1.44315       .     S
H155  C153   0.96054       .     S
C153  H155   0.96054       .     S
H156  C153   0.95954       .     S
C153  H156   0.95954       .     S
H157  C153   0.95942       .     S
C153  H157   0.95942       .     S
H158  C154   0.96019       .     S
C154  H158   0.96019       .     S
H159  C154   0.96013   1_554     S
C154  H159   0.96013   1_556     S
H160  C154   0.96024       .     S
C154  H160   0.96024       .     S
Cl162 Cl161  0.92730       .     S
Cl161 Cl162  0.92730       .     S
Cl164 Cl161  1.03527       .     S
Cl161 Cl164  1.03527       .     S
C167  Cl161  1.71463       .     S
Cl161 C167   1.71463       .     S
Cl175 Cl161  2.20579       .     S
Cl161 Cl175  2.20579       .     S
Cl164 Cl162  1.87160       .     S
Cl162 Cl164  1.87160       .     S
Cl175 Cl162  1.81485       .     S
Cl162 Cl175  1.81485       .     S
Cl165 Cl163  1.56941       .     S
Cl163 Cl165  1.56941       .     S
C169  Cl163  1.47389       .     S
Cl163 C169   1.47389       .     S
C170  Cl163  1.52250       .     S
Cl163 C170   1.52250       .     S
C167  Cl164  1.70223       .     S
Cl164 C167   1.70223       .     S
C170  Cl165  1.81711       .     S
Cl165 C170   1.81711       .     S
C167  C166   1.55193       .     S
C166  C167   1.55193       .     S
C171  C166   1.49437       .     S
C166  C171   1.49437       .     S
Cl175 C166   1.64124       .     S
C166  Cl175  1.64124       .     S
C168  C167   1.36500       .     S
C167  C168   1.36500       .     S
C169  C168   1.33088       .     S
C168  C169   1.33088       .     S
H172  C168   0.93075       .     S
C168  H172   0.93075       .     S
C170  C169   1.23531       .     S
C169  C170   1.23531       .     S
C171  C170   1.32766       .     S
C170  C171   1.32766       .     S
H173  C171   0.92994       .     S
C171  H173   0.92994       .     S
Cl175 Cl174  1.31095       .     S
Cl174 Cl175  1.31095       .     S
