data_I
_chemical_name_common  '/data/user2/wty/HOF/MOFDiff/mofdiff/data/test/13-2d1_mebz'
_cell_length_a 26.40210
_cell_length_b 27.50970
_cell_length_c 27.51260
_cell_angle_alpha 119.95700
_cell_angle_beta  101.30400
_cell_angle_gamma 101.22800
_space_group_name_H-M_alt      'P 1'


loop_
_space_group_symop_operation_xyz
  'x, y, z' 

loop_
_atom_site_label
_atom_site_fract_x
_atom_site_fract_y
_atom_site_fract_z
_atom_site_type_symbol
O0     0.86841  0.23584  0.02672     O
O1     0.95589   0.2964   0.0743     O
O2     0.87315  0.53492  0.05293     O
O3      0.9382  0.59174  0.04482     O
O4     0.89781  0.57658  0.47137     O
O5     0.96444  0.56826  0.43105     O
O6     0.87121  0.25627  0.13096     O
O7     0.96332   0.2836  0.16354     O
O8     0.95148  0.69259  0.14361     O
O9     0.88136   0.6354  0.14667     O
O10    0.96232  0.66092  0.42852     O
O11    0.89793  0.67154  0.47157     O
C12    0.90974   0.1309  0.62783     C
C13    0.90577  0.17299  0.66954     C
C14    0.90389  0.22389  0.72047     C
C15    0.90381  0.22492  0.77179     C
C16    0.90552  0.27507  0.82332     C
C17    0.90632  0.32739  0.82427     C
C18     0.9054  0.32609  0.77266     C
C19    0.90353  0.27563  0.72083     C
C20    0.90242  0.27559  0.66873     C
C21    0.90197  0.27603  0.62515     C
C22    0.90324   0.2769  0.57599     C
C23    0.90629  0.27761  0.53307     C
C24    0.91049  0.27797  0.48284     C
C25    0.91049  0.32798  0.48114     C
C26    0.91546  0.32985  0.43241     C
C27    0.91804  0.27934  0.38262     C
C28    0.91949  0.23007  0.38482     C
C29    0.91588  0.22867  0.43392     C
C30    0.91826  0.17797  0.43541     C
C31    0.92114  0.13575  0.43723     C
C32    0.92449   0.0875  0.43876     C
C33    0.92674  0.04461  0.43909     C
C34    0.92935   0.9936  0.43987     C
C35    0.93006  0.94322  0.38946     C
C36    0.92868  0.89121  0.38756     C
C37    0.92773  0.89055  0.43864     C
C38    0.92696  0.94084  0.48871     C
C39    0.92677  0.99239  0.49016     C
C40    0.92281  0.04205  0.54051     C
C41     0.9161  0.08316  0.58101     C
C42    0.90785   0.2729  0.87646     C
C43    0.86843   0.2273  0.87178     C
C44    0.87022  0.22545  0.92153     C
C45    0.91151  0.26813  0.97569     C
C46    0.95194  0.31284  0.98036     C
C47    0.94952  0.31542   0.9312     C
C48    0.91342  0.26764   0.0299     C
C49    0.90689   0.3827  0.87716     C
C50    0.87097  0.38028   0.9068     C
C51    0.87016   0.4322  0.95541     C
C52    0.90743  0.48715  0.97561     C
C53    0.94349  0.48968  0.94584     C
C54     0.9436   0.4382  0.89711     C
C55    0.90829  0.54286  0.02782     C
C56    0.91857   0.3864  0.43616     C
C57    0.88423  0.41685  0.45814     C
C58    0.88785  0.46989  0.46293     C
C59    0.92654  0.49335   0.4459     C
C60     0.9615  0.46397  0.42439     C
C61     0.9583  0.41062  0.41954     C
C62    0.92935  0.55052  0.45057     C
C63    0.91718  0.27562   0.3264     C
C64    0.87425  0.28137  0.29541     C
C65    0.87278  0.27777  0.24281     C
C66     0.9164  0.27095  0.22303     C
C67    0.95934  0.26477  0.25335     C
C68    0.95911  0.26532  0.30459     C
C69    0.91485  0.26954  0.16849     C
C70    0.92551  0.83792  0.33095     C
C71    0.88719  0.78165  0.30654     C
C72    0.88412  0.73248  0.25331     C
C73    0.91962  0.73853  0.22374     C
C74    0.95704   0.7942  0.24697     C
C75    0.95983  0.84381  0.30051     C
C76     0.9155  0.68453   0.1675     C
C77    0.92896  0.83788  0.44156     C
C78    0.88997  0.81504  0.45907     C
C79    0.89104  0.76679  0.46282     C
C80    0.92988  0.74051  0.44788     C
C81    0.96954  0.76348   0.4304     C
C82    0.96812  0.81223  0.42714     C
C83    0.93065   0.6874  0.44953     C
H84    0.87213  0.23981  0.05894     H
H85    0.87907  0.56654  0.08439     H
H86    0.96164  0.59835  0.43311     H
H87    0.95943  0.28258   0.1327     H
H88    0.94939  0.66016  0.11548     H
H89    0.89857  0.63972   0.4666     H
H90    0.90257  0.19063  0.77125     H
H91    0.90607  0.36019  0.77301     H
H92    0.90711  0.36071  0.51318     H
H93    0.92295  0.19743  0.35277     H
H94    0.93148  0.94424  0.35645     H
H95    0.92657  0.94024  0.52214     H
H96    0.84091  0.19809   0.8352     H
H97    0.84354   0.1954  0.91839     H
H98    0.98045  0.34083  0.01652     H
H99    0.97599  0.34586  0.93466     H
H100   0.84686  0.34339  0.89414     H
H101   0.84488  0.43006  0.97416     H
H102   0.96796  0.52652  0.95882     H
H103   0.96811  0.44052  0.87761     H
H104   0.85825  0.40149  0.46992     H
H105   0.86425  0.48989  0.47763     H
H106   0.98749  0.47986  0.41299     H
H107   0.98234  0.39105  0.40537     H
H108   0.84543  0.28782   0.3097     H
H109   0.84248  0.27997  0.22123     H
H110   0.98894  0.26017  0.24004     H
H111   0.98742   0.2587  0.32376     H
H112    0.8636  0.77727  0.32625     H
H113    0.8583   0.6953  0.23723     H
H114    0.9803  0.79854  0.22694     H
H115   0.98493  0.88118  0.31592     H
H116   0.86318   0.8321  0.46826     H
H117   0.86548  0.75212  0.47545     H
H118   0.99634  0.74647  0.42114     H
H119   0.99389  0.82751  0.41512     H
O120   0.58165  0.76587  0.42159     O
O121   0.53637  0.82961  0.43956     O
C122   0.57528   0.8168  0.45729     C
C123   0.61441  0.85394  0.51748     C
C124    0.6126  0.90798  0.56003     C
C125    0.6473  0.94305  0.61765     C
C126    0.6907  0.92397   0.6337     C
C127    0.6944    0.872   0.5923     C
C128    0.6562  0.83696   0.5353     C
C129    0.5423   0.7255  0.36288     C
H130   0.50636  0.71498  0.36521     H
H131   0.55146  0.69012  0.34252     H
H132   0.54236  0.74419   0.3413     H
H133   0.58575  0.92134  0.54856     H
H134   0.64312  0.97803  0.64555     H
H135   0.71622  0.94722  0.67236     H
H136   0.72286  0.85974  0.60234     H
H137   0.65875  0.80064  0.50788     H
O138   0.91793  0.57844  0.23411     O
O139   0.96393  0.55981   0.1699     O
C140   0.92529  0.54253  0.18298     C
C141   0.88576  0.48298  0.14635     C
C142    0.8441   0.4653  0.16388     C
C143    0.8061   0.4079   0.1281     C
C144    0.8103   0.3663  0.07622     C
C145     0.853  0.38284  0.05658     C
C146    0.8877  0.44004  0.09198     C
C147    0.9569  0.63769   0.2753     C
H148   0.99269  0.63781  0.27282     H
H149   0.95792  0.65098  0.31515     H
H150   0.94625  0.66405  0.26551     H
H151   0.84163   0.4924  0.20035     H
H152   0.77722  0.39765  0.13978     H
H153   0.78566  0.32725  0.05354     H
H154   0.85657  0.35537  0.02098     H
H155   0.91482  0.45147  0.07898     H
O156   0.60202  0.52831  0.32849     O
O157   0.53707  0.57134  0.33904     O
O158   0.61875  0.85337  0.36481     O
O159   0.54878   0.8565  0.30732     O
O160   0.62898  0.86894  0.74364     O
O161   0.53659  0.83645  0.71661     O
O162   0.53584  0.56876  0.43166     O
O163   0.60241  0.52886  0.42354     O
O164   0.56159  0.95537   0.4082     O
O165   0.62702  0.94725  0.46514     O
O166   0.54407  0.92573  0.70354     O
O167   0.63169  0.97317  0.76403     O
C168   0.58407  0.41907  0.91689     C
C169   0.57731  0.45952  0.95799     C
C170   0.57323  0.50978  0.00792     C
C171   0.57304  0.51143  0.05915     C
C172   0.57218  0.56135  0.10949     C
C173   0.57158  0.61243  0.10875     C
C174   0.57027  0.61063  0.05699     C
C175   0.57078   0.5602  0.00642     C
C176   0.57329  0.56085  0.95539     C
C177   0.57559  0.56127  0.91245     C
C178   0.57897  0.56285  0.86426     C
C179     0.582  0.56483  0.82221     C
C180   0.58431  0.56609  0.77135     C
C181   0.58069  0.61528  0.76977     C
C182   0.58203  0.61746  0.72092     C
C183   0.58438   0.5675  0.66997     C
C184   0.58928  0.51893  0.67215     C
C185   0.58923  0.51732  0.72194     C
C186   0.59355   0.4669  0.72252     C
C187   0.59694  0.42389  0.72308     C
C188   0.59794  0.37487  0.72396     C
C189   0.59738  0.33111  0.72432     C
C190   0.59628  0.27915  0.72456     C
C191   0.59483  0.22754  0.67394     C
C192   0.59359  0.17586  0.67275     C
C193    0.5946  0.17691  0.72495     C
C194   0.59592  0.22811  0.77517     C
C195   0.59619  0.27945  0.77589     C
C196   0.59444  0.33068  0.82719     C
C197   0.59041  0.37228  0.86921     C
C198   0.57115  0.55863  0.16212     C
C199   0.53182  0.57279  0.18794     C
C200   0.53069  0.56984  0.23673     C
C201   0.57019  0.55211  0.25945     C
C202   0.60892  0.53737  0.23333     C
C203   0.60995  0.54067  0.18489     C
C204   0.56938   0.5504   0.3125     C
C205   0.57468  0.66908  0.16213     C
C206   0.53988  0.69947   0.1562     C
C207   0.54288  0.75324  0.20581     C
C208   0.58037  0.77621  0.26135     C
C209   0.61601  0.74659  0.26762     C
C210    0.6128  0.69336  0.21824     C
C211   0.58417  0.83254  0.31554     C
C212   0.58265  0.67341  0.72422     C
C213   0.54149  0.69519  0.73443     C
C214   0.54039  0.74659   0.7353     C
C215   0.58399  0.77689  0.72911     C
C216   0.62699  0.75734  0.72234     C
C217   0.62574  0.70456  0.71858     C
C218   0.58495  0.83189  0.73069     C
C219   0.58106  0.56386  0.61355     C
C220   0.54147  0.58042  0.58929     C
C221   0.53793  0.57558  0.53597     C
C222   0.57333  0.55417  0.50661     C
C223   0.61215  0.53707  0.52989     C
C224   0.61574  0.54197  0.58324     C
C225   0.57031  0.54959  0.44974     C
C226   0.59309  0.12281  0.61733     C
C227   0.55617  0.10313  0.56202     C
C228   0.55618  0.05383  0.50998     C
C229   0.59252   0.0248  0.51312     C
C230   0.63019  0.04462  0.56785     C
C231   0.62942  0.09324  0.61985     C
C232   0.59173  0.97215  0.45736     C
C233   0.59248  0.12343  0.72713     C
C234   0.55071  0.06869  0.68442     C
C235   0.54806  0.01934  0.68686     C
C236   0.58846  0.02439  0.73196     C
C237   0.62994  0.07856  0.77479     C
C238   0.63172  0.12839  0.77261     C
C239   0.58654  0.97035  0.73251     C
H240   0.60361  0.53619  0.36182     H
H241   0.57352  0.47803  0.05978     H
H242   0.55227  0.88605  0.33947     H
H243   0.54033  0.86803  0.71916     H
H244   0.56904  0.64375  0.05613     H
H245   0.53789    0.565  0.40067     H
H246    0.6221  0.91669  0.43313     H
H247   0.62772  0.94105  0.76034     H
H248   0.57728  0.64738  0.80241     H
H249   0.59266  0.48682   0.6395     H
H250   0.59468  0.22742  0.64005     H
H251   0.59666  0.22847  0.80929     H
H252   0.50574  0.58446   0.1725     H
H253   0.50414  0.57949  0.25402     H
H254   0.63468  0.52507  0.24828     H
H255   0.63648  0.53092  0.16761     H
H256   0.51446  0.68381   0.1189     H
H257    0.5198  0.77348   0.2015     H
H258   0.64178  0.76259  0.30483     H
H259   0.63636  0.67358  0.22257     H
H260   0.51331  0.67585  0.74102     H
H261   0.51074  0.75981  0.73996     H
H262   0.65726  0.77899   0.7202     H
H263   0.65461  0.69035  0.71215     H
H264   0.51752  0.59467  0.60894     H
H265   0.51173  0.58676     0.52     H
H266   0.63574  0.52237  0.50987     H
H267    0.6418  0.53037  0.59879     H
H268   0.53171  0.12275  0.55984     H
H269   0.53157  0.04054  0.47307     H
H270   0.65546  0.02577  0.56974     H
H271   0.65364    0.106  0.65674     H
H272   0.52435  0.06535  0.65396     H
H273   0.51965  0.98314  0.65876     H
H274   0.65655  0.08172  0.80494     H
H275   0.65925    0.165  0.80169     H
O276   0.64337   0.8224   0.1399     O
O277    0.5745  0.73906   0.0645     O
C278    0.5962   0.7933   0.0919     C
C279    0.5784   0.8315   0.0752     C
C280     0.603   0.8921   0.1074     C
C281    0.5822   0.9254   0.0905     C
C282    0.5394   0.8993   0.0411     C
C283    0.5142   0.8397   0.0076     C
C284    0.5333   0.8033   0.0227     C
C285    0.6648    0.794   0.1621     C
H286   0.64434  0.78817  0.18507     H
H287   0.70254  0.81773  0.18717     H
H288   0.66288  0.75599  0.12971     H
H289   0.63418  0.91098  0.14121     H
H290   0.59843  0.96686  0.11393     H
H291   0.52656  0.92235  0.02952     H
H292    0.4835  0.82236  0.97361     H
H293   0.51652  0.76197  0.99871     H
O294   0.72539   0.7571  0.87238     O
O295   0.79956  0.81085  0.95582     O
O296   0.70019  0.04427  0.18929     O
O297   0.77474  0.12773  0.24289     O
O298   0.74907  0.66666  0.23665     O
O299   0.73483  0.70983  0.18698     O
O300   0.79883  0.71327  0.95152     O
O301   0.72452  0.65956  0.86779     O
O302   0.77587  0.13205   0.3403     O
O303    0.7011  0.04829  0.28654     O
O304    0.7654  0.81321  0.29027     O
O305   0.75106  0.76333  0.33323     O
C306   0.76529  0.07596  0.78811     C
C307   0.75957  0.07397  0.82969     C
C308   0.75335  0.07244   0.8794     C
C309   0.75567  0.02292  0.88142     C
C310   0.75215  0.02055  0.93019     C
C311   0.74782   0.0697  0.97948     C
C312   0.74415  0.11859  0.97717     C
C313    0.7465  0.12055  0.92769     C
C314   0.74018  0.17008  0.92603     C
C315   0.73467  0.21191  0.92403     C
C316   0.73091  0.25977  0.92223     C
C317   0.72829  0.30246  0.92137     C
C318   0.72865  0.35411  0.92052     C
C319   0.72782  0.40549  0.97015     C
C320   0.73169  0.45815  0.97223     C
C321   0.73609  0.45862  0.92203     C
C322   0.73492  0.40691  0.87193     C
C323   0.73267   0.3548  0.87022     C
C324   0.73712  0.30512  0.82058     C
C325   0.74535  0.26491  0.78045     C
C326   0.75448  0.21972  0.73518     C
C327    0.7629  0.17938  0.69474     C
C328   0.76754  0.12977  0.64516     C
C329    0.7649  0.12788  0.59307     C
C330   0.76405  0.07776  0.54142     C
C331   0.76803  0.02771   0.5419     C
C332   0.77211  0.02998  0.59453     C
C333   0.77106  0.07935  0.64594     C
C334   0.77148  0.07866  0.69764     C
C335    0.7695   0.0779  0.74032     C
C336   0.75517  0.96552  0.92758     C
C337    0.7201  0.90994   0.8783     C
C338   0.72225  0.85815  0.87456     C
C339   0.76022  0.86215  0.92044     C
C340   0.79522  0.91758  0.96978     C
C341   0.79256  0.96939  0.97393     C
C342   0.76184   0.8061  0.91574     C
C343   0.74432  0.07205  0.03411     C
C344   0.70782  0.02595  0.03047     C
C345   0.70482  0.03023   0.0825     C
C346   0.73975  0.07959  0.13793     C
C347   0.77763  0.12525  0.14168     C
C348   0.77925  0.12163  0.08985     C
C349   0.73799  0.08454  0.19378     C
C350   0.73171  0.51094  0.02784     C
C351     0.706  0.55008  0.02576     C
C352   0.70895  0.60065  0.07843     C
C353   0.73505  0.61069   0.1331     C
C354   0.75826   0.5705  0.13563     C
C355   0.75768  0.52148  0.08322     C
C356   0.73994  0.66605  0.18924     C
C357   0.74313  0.51252  0.91968     C
C358   0.70814  0.50803  0.87183     C
C359   0.71375  0.55754   0.8683     C
C360   0.75518   0.6112  0.91247     C
C361   0.79134  0.61567  0.95961     C
C362   0.78543  0.56637   0.9631     C
C363    0.7595  0.66456   0.9097     C
C364   0.75705  0.08029  0.48756     C
C365   0.71437  0.03687  0.43358     C
C366   0.70844  0.04031  0.38438     C
C367    0.7449  0.08792   0.3889     C
C368   0.78582  0.13172  0.44246     C
C369   0.79193  0.12803  0.49186     C
C370   0.74057  0.08985    0.335     C
C371   0.76841  0.97233  0.48919     C
C372   0.74248  0.91693  0.47854     C
C373   0.74194  0.86437  0.42942     C
C374   0.76494  0.86675  0.38917     C
C375   0.79121  0.92189  0.39947     C
C376   0.79393  0.97426  0.44994     C
C377   0.76039  0.81097  0.33405     C
H378    0.7299  0.72972  0.87499     H
H379   0.76958  0.12574  0.27038     H
H380   0.75032  0.69889  0.26436     H
H381   0.79927  0.73898  0.94449     H
H382   0.69997  0.05583  0.26112     H
H383    0.7605  0.77961  0.26198     H
H384   0.75967  0.99078  0.84936     H
H385   0.74004   0.1506  0.00926     H
H386   0.72461  0.40471  0.00283     H
H387   0.73567  0.40694  0.83829     H
H388   0.76368  0.16132  0.59283     H
H389   0.77565   0.9974  0.59536     H
H390   0.69491  0.90727  0.84747     H
H391    0.6984  0.82098  0.84152     H
H392   0.82068  0.92016  0.00037     H
H393   0.81567  0.00657  0.00755     H
H394   0.68519  0.99199  0.99329     H
H395   0.67922  0.99975  0.07988     H
H396   0.80182  0.15812  0.17877     H
H397   0.80398  0.15272  0.09249     H
H398   0.68683  0.54232  0.98903     H
H399   0.69341  0.62764  0.07687     H
H400   0.77418   0.5763  0.17226     H
H401    0.7747   0.4956  0.08514     H
H402   0.68067  0.47172  0.84182     H
H403   0.68976  0.55446  0.83642     H
H404   0.81954  0.65166  0.98889     H
H405   0.80988  0.56937  0.99465     H
H406    0.6898  0.00549  0.43067     H
H407   0.68025    0.011  0.34837     H
H408    0.8095  0.16391  0.44577     H
H409   0.81967  0.15788  0.52803     H
H410    0.7254  0.91498  0.50437     H
H411   0.72616  0.82778  0.42373     H
H412   0.80687  0.92361  0.37264     H
H413   0.81295    0.011  0.45767     H
O414    0.9271    0.935  0.26101     O
O415    0.8567   0.8615   0.1785     O
C416    0.9057   0.9095   0.2081     C
C417    0.9218    0.925   0.1686     C
C418    0.9672   0.9782   0.1974     C
C419    0.9837   0.9938   0.1621     C
C420    0.9602   0.9597   0.1015     C
C421    0.9176   0.9095   0.0748     C
C422    0.8972   0.8934   0.1083     C
C423    0.8346   0.8385   0.2062     C
H424   0.85616  0.81711  0.21388     H
H425   0.79759  0.81168  0.18101     H
H426   0.83434  0.87032  0.24328     H
H427   0.98497  0.00127  0.23865     H
H428   0.01239  0.02959  0.18011     H
H429   0.97382  0.97134  0.07879     H
H430   0.90187  0.88552  0.03336     H
H431   0.86565  0.85993   0.0895     H
loop_
_geom_bond_atom_site_label_1
_geom_bond_atom_site_label_2
_geom_bond_distance
_geom_bond_site_symmetry_2
_ccdc_geom_bond_type
H84   O6     1.80524       .     S
O6    H84    1.80524       .     S
H85   O9     1.78920       .     S
O9    H85    1.78920       .     S
H86   O10    1.78466       .     S
O10   H86    1.78466       .     S
H87   O1     1.81656       .     S
O1    H87    1.81656       .     S
H88   O3     1.82023       .     S
O3    H88    1.82023       .     S
H89   O4     1.80272       .     S
O4    H89    1.80272       .     S
H240  O163   1.81265       .     S
O163  H240   1.81265       .     S
H242  O164   1.81833       .     S
O164  H242   1.81833       .     S
H243  O166   1.83053       .     S
O166  H243   1.83053       .     S
H245  O157   1.78560       .     S
O157  H245   1.78560       .     S
H246  O158   1.78328       .     S
O158  H246   1.78328       .     S
H247  O160   1.80798       .     S
O160  H247   1.80798       .     S
H378  O301   1.81246       .     S
O301  H378   1.81246       .     S
H379  O302   1.81337       .     S
O302  H379   1.81337       .     S
H380  O305   1.83046       .     S
O305  H380   1.83046       .     S
H381  O295   1.83954       .     S
O295  H381   1.83954       .     S
H382  O296   1.83963       .     S
O296  H382   1.83963       .     S
H383  O299   1.84155       .     S
O299  H383   1.84155       .     S
O0    C48    1.28961       .     S
C48   O0     1.28961       .     S
O0    H84    0.81999       .     S
H84   O0     0.81999       .     S
O1    C48    1.23605       .     S
C48   O1     1.23605       .     S
O2    C55    1.30720       .     S
C55   O2     1.30720       .     S
O2    H85    0.81997       .     S
H85   O2     0.81997       .     S
O3    C55    1.21000       .     S
C55   O3     1.21000       .     S
O4    C62    1.24275       .     S
C62   O4     1.24275       .     S
O5    C62    1.29059       .     S
C62   O5     1.29059       .     S
O5    H86    0.82006       .     S
H86   O5     0.82006       .     S
O6    C69    1.23301       .     S
C69   O6     1.23301       .     S
O7    C69    1.31681       .     S
C69   O7     1.31681       .     S
O7    H87    0.81988       .     S
H87   O7     0.81988       .     S
O8    C76    1.30072       .     S
C76   O8     1.30072       .     S
O8    H88    0.82003       .     S
H88   O8     0.82003       .     S
O9    C76    1.23171       .     S
C76   O9     1.23171       .     S
O10   C83    1.25303       .     S
C83   O10    1.25303       .     S
O11   C83    1.27559       .     S
C83   O11    1.27559       .     S
O11   H89    0.81998       .     S
H89   O11    0.81998       .     S
C12   C13    1.19832       .     S
C13   C12    1.19832       .     S
C12   C41    1.37602       .     S
C41   C12    1.37602       .     S
C13   C14    1.42176       .     S
C14   C13    1.42176       .     S
C14   C15    1.39844       .     S
C15   C14    1.39844       .     S
C14   C19    1.42033       .     S
C19   C14    1.42033       .     S
C15   C16    1.38297       .     S
C16   C15    1.38297       .     S
C15   H90    0.93000       .     S
H90   C15    0.93000       .     S
C16   C17    1.42236       .     S
C17   C16    1.42236       .     S
C16   C42    1.48263       .     S
C42   C16    1.48263       .     S
C17   C18    1.39767       .     S
C18   C17    1.39767       .     S
C17   C49    1.48462       .     S
C49   C17    1.48462       .     S
C18   C19    1.38982       .     S
C19   C18    1.38982       .     S
C18   H91    0.92997       .     S
H91   C18    0.92997       .     S
C19   C20    1.42740       .     S
C20   C19    1.42740       .     S
C20   C21    1.20285       .     S
C21   C20    1.20285       .     S
C21   C22    1.37142       .     S
C22   C21    1.37142       .     S
C22   C23    1.20870       .     S
C23   C22    1.20870       .     S
C23   C24    1.41263       .     S
C24   C23    1.41263       .     S
C24   C25    1.39970       .     S
C25   C24    1.39970       .     S
C24   C29    1.41363       .     S
C29   C24    1.41363       .     S
C25   C26    1.39733       .     S
C26   C25    1.39733       .     S
C25   H92    0.93015       .     S
H92   C25    0.93015       .     S
C26   C27    1.40868       .     S
C27   C26    1.40868       .     S
C26   C56    1.49136       .     S
C56   C26    1.49136       .     S
C27   C28    1.39409       .     S
C28   C27    1.39409       .     S
C27   C63    1.49355       .     S
C63   C27    1.49355       .     S
C28   C29    1.39155       .     S
C29   C28    1.39155       .     S
C28   H93    0.93001       .     S
H93   C28    0.93001       .     S
C29   C30    1.42869       .     S
C30   C29    1.42869       .     S
C30   C31    1.20344       .     S
C31   C30    1.20344       .     S
C31   C32    1.36803       .     S
C32   C31    1.36803       .     S
C32   C33    1.19730       .     S
C33   C32    1.19730       .     S
C33   C34    1.42882   1_545     S
C34   C33    1.42882   1_565     S
C34   C35    1.39475       .     S
C35   C34    1.39475       .     S
C34   C39    1.41498       .     S
C39   C34    1.41498       .     S
C35   C36    1.39837       .     S
C36   C35    1.39837       .     S
C35   H94    0.93026       .     S
H94   C35    0.93026       .     S
C36   C37    1.41953       .     S
C37   C36    1.41953       .     S
C36   C70    1.48416       .     S
C70   C36    1.48416       .     S
C37   C38    1.38948       .     S
C38   C37    1.38948       .     S
C37   C77    1.49682       .     S
C77   C37    1.49682       .     S
C38   C39    1.39966       .     S
C39   C38    1.39966       .     S
C38   H95    0.93012       .     S
H95   C38    0.93012       .     S
C39   C40    1.42078   1_565     S
C40   C39    1.42078   1_545     S
C40   C41    1.20368       .     S
C41   C40    1.20368       .     S
C42   C43    1.39683       .     S
C43   C42    1.39683       .     S
C42   C47    1.39166       .     S
C47   C42    1.39166       .     S
C43   C44    1.38689       .     S
C44   C43    1.38689       .     S
C43   H96    0.92995       .     S
H96   C43    0.92995       .     S
C44   C45    1.38014       .     S
C45   C44    1.38014       .     S
C44   H97    0.93010       .     S
H97   C44    0.93010       .     S
C45   C46    1.39494       .     S
C46   C45    1.39494       .     S
C45   C48    1.48930   1_556     S
C48   C45    1.48931   1_554     S
C46   C47    1.37919       .     S
C47   C46    1.37919       .     S
C46   H98    0.93000   1_556     S
H98   C46    0.93000   1_554     S
C47   H99    0.93011       .     S
H99   C47    0.93011       .     S
C49   C50    1.37900       .     S
C50   C49    1.37900       .     S
C49   C54    1.39642       .     S
C54   C49    1.39642       .     S
C50   C51    1.39446       .     S
C51   C50    1.39446       .     S
C50   H100   0.93000       .     S
H100  C50    0.93000       .     S
C51   C52    1.38909       .     S
C52   C51    1.38909       .     S
C51   H101   0.93009       .     S
H101  C51    0.93009       .     S
C52   C53    1.38526       .     S
C53   C52    1.38526       .     S
C52   C55    1.47909   1_556     S
C55   C52    1.47909   1_554     S
C53   C54    1.38202       .     S
C54   C53    1.38202       .     S
C53   H102   0.93013       .     S
H102  C53    0.93013       .     S
C54   H103   0.92999       .     S
H103  C54    0.92999       .     S
C56   C57    1.37629       .     S
C57   C56    1.37629       .     S
C56   C61    1.40480       .     S
C61   C56    1.40480       .     S
C57   C58    1.37994       .     S
C58   C57    1.37994       .     S
C57   H104   0.93013       .     S
H104  C57    0.93013       .     S
C58   C59    1.38289       .     S
C59   C58    1.38289       .     S
C58   H105   0.92983       .     S
H105  C58    0.92983       .     S
C59   C60    1.37200       .     S
C60   C59    1.37200       .     S
C59   C62    1.49817       .     S
C62   C59    1.49817       .     S
C60   C61    1.38947       .     S
C61   C60    1.38947       .     S
C60   H106   0.92994       .     S
H106  C60    0.92994       .     S
C61   H107   0.93013       .     S
H107  C61    0.93013       .     S
C63   C64    1.36467       .     S
C64   C63    1.36467       .     S
C63   C68    1.37064       .     S
C68   C63    1.37064       .     S
C64   C65    1.39246       .     S
C65   C64    1.39246       .     S
C64   H108   0.93017       .     S
H108  C64    0.93017       .     S
C65   C66    1.37315       .     S
C66   C65    1.37315       .     S
C65   H109   0.92988       .     S
H109  C65    0.92988       .     S
C66   C67    1.36235       .     S
C67   C66    1.36235       .     S
C66   C69    1.47376       .     S
C69   C66    1.47376       .     S
C67   C68    1.40347       .     S
C68   C67    1.40347       .     S
C67   H110   0.93020       .     S
H110  C67    0.93020       .     S
C68   H111   0.92973       .     S
H111  C68    0.92973       .     S
C70   C71    1.39869       .     S
C71   C70    1.39869       .     S
C70   C75    1.38727       .     S
C75   C70    1.38727       .     S
C71   C72    1.38325       .     S
C72   C71    1.38325       .     S
C71   H112   0.93001       .     S
H112  C71    0.93001       .     S
C72   C73    1.39336       .     S
C73   C72    1.39336       .     S
C72   H113   0.93001       .     S
H113  C72    0.93001       .     S
C73   C74    1.38408       .     S
C74   C73    1.38408       .     S
C73   C76    1.47929       .     S
C76   C73    1.47929       .     S
C74   C75    1.39585       .     S
C75   C74    1.39585       .     S
C74   H114   0.93000       .     S
H114  C74    0.93000       .     S
C75   H115   0.93007       .     S
H115  C75    0.93007       .     S
C77   C78    1.38975       .     S
C78   C77    1.38975       .     S
C77   C82    1.37462       .     S
C82   C77    1.37462       .     S
C78   C79    1.38691       .     S
C79   C78    1.38691       .     S
C78   H116   0.93024       .     S
H116  C78    0.93024       .     S
C79   C80    1.37853       .     S
C80   C79    1.37853       .     S
C79   H117   0.93002       .     S
H117  C79    0.93002       .     S
C80   C81    1.40366       .     S
C81   C80    1.40366       .     S
C80   C83    1.48814       .     S
C83   C80    1.48814       .     S
C81   C82    1.39513       .     S
C82   C81    1.39513       .     S
C81   H118   0.93010       .     S
H118  C81    0.93010       .     S
C82   H119   0.92986       .     S
H119  C82    0.92986       .     S
O120  C122   1.31840       .     S
C122  O120   1.31840       .     S
O120  C129   1.42235       .     S
C129  O120   1.42235       .     S
O121  C122   1.23842       .     S
C122  O121   1.23842       .     S
C122  C123   1.44292       .     S
C123  C122   1.44292       .     S
C123  C124   1.37634       .     S
C124  C123   1.37634       .     S
C123  C128   1.37597       .     S
C128  C123   1.37597       .     S
C124  C125   1.35728       .     S
C125  C124   1.35728       .     S
C124  H133   0.93102       .     S
H133  C124   0.93102       .     S
C125  C126   1.43206       .     S
C126  C125   1.43206       .     S
C125  H134   0.92966       .     S
H134  C125   0.92966       .     S
C126  C127   1.35003       .     S
C127  C126   1.35003       .     S
C126  H135   0.93070       .     S
H135  C126   0.93070       .     S
C127  C128   1.37744       .     S
C128  C127   1.37744       .     S
C127  H136   0.93006       .     S
H136  C127   0.93006       .     S
C128  H137   0.93021       .     S
H137  C128   0.93021       .     S
C129  H130   0.96109       .     S
H130  C129   0.96109       .     S
C129  H131   0.95909       .     S
H131  C129   0.95909       .     S
C129  H132   0.96010       .     S
H132  C129   0.96010       .     S
O138  C140   1.33663       .     S
C140  O138   1.33663       .     S
O138  C147   1.42992       .     S
C147  O138   1.42992       .     S
O139  C140   1.23375       .     S
C140  O139   1.23375       .     S
C140  C141   1.43584       .     S
C141  C140   1.43584       .     S
C141  C142   1.38307       .     S
C142  C141   1.38307       .     S
C141  C146   1.38726       .     S
C146  C141   1.38726       .     S
C142  C143   1.38293       .     S
C143  C142   1.38293       .     S
C142  H151   0.92970       .     S
H151  C142   0.92970       .     S
C143  C144   1.35625       .     S
C144  C143   1.35625       .     S
C143  H152   0.93112       .     S
H152  C143   0.93112       .     S
C144  C145   1.43338       .     S
C145  C144   1.43338       .     S
C144  H153   0.93051       .     S
H153  C144   0.93051       .     S
C145  C146   1.34989       .     S
C146  C145   1.34989       .     S
C145  H154   0.92952       .     S
H154  C145   0.92952       .     S
C146  H155   0.92980       .     S
H155  C146   0.92980       .     S
C147  H148   0.96013       .     S
H148  C147   0.96013       .     S
C147  H149   0.95953       .     S
H149  C147   0.95953       .     S
C147  H150   0.96033       .     S
H150  C147   0.96033       .     S
O156  C204   1.27584       .     S
C204  O156   1.27584       .     S
O156  H240   0.82005       .     S
H240  O156   0.82005       .     S
O157  C204   1.26814       .     S
C204  O157   1.26814       .     S
O158  C211   1.23885       .     S
C211  O158   1.23885       .     S
O159  C211   1.29016       .     S
C211  O159   1.29016       .     S
O159  H242   0.82005       .     S
H242  O159   0.82005       .     S
O160  C218   1.23721       .     S
C218  O160   1.23721       .     S
O161  C218   1.30883       .     S
C218  O161   1.30883       .     S
O161  H243   0.82001       .     S
H243  O161   0.82001       .     S
O162  C225   1.27483       .     S
C225  O162   1.27483       .     S
O162  H245   0.82023       .     S
H245  O162   0.82023       .     S
O163  C225   1.25708       .     S
C225  O163   1.25708       .     S
O164  C232   1.21947       .     S
C232  O164   1.21947       .     S
O165  C232   1.30382       .     S
C232  O165   1.30382       .     S
O165  H246   0.82003       .     S
H246  O165   0.82003       .     S
O166  C239   1.23930       .     S
C239  O166   1.23930       .     S
O167  C239   1.29251       .     S
C239  O167   1.29251       .     S
O167  H247   0.81990       .     S
H247  O167   0.81990       .     S
C168  C169   1.20356       .     S
C169  C168   1.20356       .     S
C168  C197   1.37453       .     S
C197  C168   1.37453       .     S
C169  C170   1.42460   1_556     S
C170  C169   1.42460   1_554     S
C170  C171   1.38840       .     S
C171  C170   1.38840       .     S
C170  C175   1.42156       .     S
C175  C170   1.42156       .     S
C171  C172   1.38909       .     S
C172  C171   1.38909       .     S
C171  H241   0.93008       .     S
H241  C171   0.93008       .     S
C172  C173   1.41857       .     S
C173  C172   1.41857       .     S
C172  C198   1.49193       .     S
C198  C172   1.49193       .     S
C173  C174   1.39326       .     S
C174  C173   1.39326       .     S
C173  C205   1.48650       .     S
C205  C173   1.48650       .     S
C174  C175   1.39553       .     S
C175  C174   1.39553       .     S
C174  H244   0.92979       .     S
H244  C174   0.92979       .     S
C175  C176   1.42721   1_554     S
C176  C175   1.42721   1_556     S
C176  C177   1.20041       .     S
C177  C176   1.20041       .     S
C177  C178   1.36752       .     S
C178  C177   1.36752       .     S
C178  C179   1.20221       .     S
C179  C178   1.20221       .     S
C179  C180   1.42969       .     S
C180  C179   1.42969       .     S
C180  C181   1.39630       .     S
C181  C180   1.39630       .     S
C180  C185   1.40730       .     S
C185  C180   1.40730       .     S
C181  C182   1.38184       .     S
C182  C181   1.38184       .     S
C181  H248   0.93006       .     S
H248  C181   0.93006       .     S
C182  C183   1.41456       .     S
C183  C182   1.41456       .     S
C182  C212   1.49251       .     S
C212  C182   1.49251       .     S
C183  C184   1.39640       .     S
C184  C183   1.39640       .     S
C183  C219   1.48837       .     S
C219  C183   1.48837       .     S
C184  C185   1.39274       .     S
C185  C184   1.39274       .     S
C184  H249   0.92996       .     S
H249  C184   0.92996       .     S
C185  C186   1.42132       .     S
C186  C185   1.42132       .     S
C186  C187   1.21124       .     S
C187  C186   1.21124       .     S
C187  C188   1.36603       .     S
C188  C187   1.36603       .     S
C188  C189   1.20604       .     S
C189  C188   1.20604       .     S
C189  C190   1.42738       .     S
C190  C189   1.42738       .     S
C190  C191   1.39284       .     S
C191  C190   1.39284       .     S
C190  C195   1.40859       .     S
C195  C190   1.40859       .     S
C191  C192   1.39941       .     S
C192  C191   1.39941       .     S
C191  H250   0.92999       .     S
H250  C191   0.92999       .     S
C192  C193   1.41681       .     S
C193  C192   1.41681       .     S
C192  C226   1.48901       .     S
C226  C192   1.48901       .     S
C193  C194   1.38296       .     S
C194  C193   1.38296       .     S
C193  C233   1.49285       .     S
C233  C193   1.49285       .     S
C194  C195   1.40116       .     S
C195  C194   1.40116       .     S
C194  H251   0.93013       .     S
H251  C194   0.93013       .     S
C195  C196   1.42995       .     S
C196  C195   1.42995       .     S
C196  C197   1.19660       .     S
C197  C196   1.19660       .     S
C198  C199   1.38021       .     S
C199  C198   1.38021       .     S
C198  C203   1.39305       .     S
C203  C198   1.39305       .     S
C199  C200   1.39029       .     S
C200  C199   1.39029       .     S
C199  H252   0.93019       .     S
H252  C199   0.93019       .     S
C200  C201   1.40116       .     S
C201  C200   1.40116       .     S
C200  H253   0.93016       .     S
H253  C200   0.93016       .     S
C201  C202   1.37295       .     S
C202  C201   1.37295       .     S
C201  C204   1.48773       .     S
C204  C201   1.48773       .     S
C202  C203   1.38534       .     S
C203  C202   1.38534       .     S
C202  H254   0.93015       .     S
H254  C202   0.93015       .     S
C203  H255   0.93003       .     S
H255  C203   0.93003       .     S
C205  C206   1.39510       .     S
C206  C205   1.39510       .     S
C205  C210   1.39339       .     S
C210  C205   1.39339       .     S
C206  C207   1.39747       .     S
C207  C206   1.39747       .     S
C206  H256   0.93007       .     S
H256  C206   0.93007       .     S
C207  C208   1.38316       .     S
C208  C207   1.38316       .     S
C207  H257   0.93013       .     S
H257  C207   0.93013       .     S
C208  C209   1.39803       .     S
C209  C208   1.39803       .     S
C208  C211   1.48582       .     S
C211  C208   1.48582       .     S
C209  C210   1.38452       .     S
C210  C209   1.38452       .     S
C209  H258   0.93006       .     S
H258  C209   0.93006       .     S
C210  H259   0.92990       .     S
H259  C210   0.92990       .     S
C212  C213   1.35055       .     S
C213  C212   1.35055       .     S
C212  C217   1.36932       .     S
C217  C212   1.36932       .     S
C213  C214   1.40829       .     S
C214  C213   1.40829       .     S
C213  H260   0.92982       .     S
H260  C213   0.92982       .     S
C214  C215   1.37618       .     S
C215  C214   1.37618       .     S
C214  H261   0.93014       .     S
H261  C214   0.93014       .     S
C215  C216   1.35405       .     S
C216  C215   1.35405       .     S
C215  C218   1.48686       .     S
C218  C215   1.48686       .     S
C216  C217   1.39642       .     S
C217  C216   1.39642       .     S
C216  H262   0.93005       .     S
H262  C216   0.93005       .     S
C217  H263   0.93002       .     S
H263  C217   0.93002       .     S
C219  C220   1.40043       .     S
C220  C219   1.40043       .     S
C219  C224   1.38164       .     S
C224  C219   1.38164       .     S
C220  C221   1.38737       .     S
C221  C220   1.38737       .     S
C220  H264   0.92988       .     S
H264  C220   0.92988       .     S
C221  C222   1.38135       .     S
C222  C221   1.38135       .     S
C221  H265   0.92995       .     S
H265  C221   0.92995       .     S
C222  C223   1.38323       .     S
C223  C222   1.38323       .     S
C222  C225   1.49018       .     S
C225  C222   1.49018       .     S
C223  C224   1.38725       .     S
C224  C223   1.38725       .     S
C223  H266   0.93003       .     S
H266  C223   0.93003       .     S
C224  H267   0.92990       .     S
H267  C224   0.92990       .     S
C226  C227   1.39611       .     S
C227  C226   1.39611       .     S
C226  C231   1.38589       .     S
C231  C226   1.38589       .     S
C227  C228   1.39653       .     S
C228  C227   1.39653       .     S
C227  H268   0.92997       .     S
H268  C227   0.92997       .     S
C228  C229   1.37862       .     S
C229  C228   1.37862       .     S
C228  H269   0.93011       .     S
H269  C228   0.93011       .     S
C229  C230   1.39125       .     S
C230  C229   1.39125       .     S
C229  C232   1.48605   1_545     S
C232  C229   1.48605   1_565     S
C230  C231   1.39538       .     S
C231  C230   1.39538       .     S
C230  H270   0.92994       .     S
H270  C230   0.92994       .     S
C231  H271   0.92983       .     S
H271  C231   0.92983       .     S
C233  C234   1.39381       .     S
C234  C233   1.39381       .     S
C233  C238   1.38704       .     S
C238  C233   1.38704       .     S
C234  C235   1.38143       .     S
C235  C234   1.38143       .     S
C234  H272   0.92987       .     S
H272  C234   0.92987       .     S
C235  C236   1.39569       .     S
C236  C235   1.39569       .     S
C235  H273   0.93001   1_545     S
H273  C235   0.93001   1_565     S
C236  C237   1.38327       .     S
C237  C236   1.38327       .     S
C236  C239   1.48535   1_545     S
C239  C236   1.48535   1_565     S
C237  C238   1.39393       .     S
C238  C237   1.39393       .     S
C237  H274   0.93003       .     S
H274  C237   0.93003       .     S
C238  H275   0.93003       .     S
H275  C238   0.93003       .     S
O276  C278   1.35905       .     S
C278  O276   1.35905       .     S
O276  C285   1.34789       .     S
C285  O276   1.34789       .     S
O277  C278   1.22367       .     S
C278  O277   1.22367       .     S
C278  C279   1.45814       .     S
C279  C278   1.45814       .     S
C279  C280   1.36516       .     S
C280  C279   1.36516       .     S
C279  C284   1.39748       .     S
C284  C279   1.39748       .     S
C280  C281   1.37046       .     S
C281  C280   1.37046       .     S
C280  H289   0.92925       .     S
H289  C280   0.92925       .     S
C281  C282   1.32175       .     S
C282  C281   1.32175       .     S
C281  H290   0.93120       .     S
H290  C281   0.93120       .     S
C282  C283   1.34386       .     S
C283  C282   1.34386       .     S
C282  H291   0.92824       .     S
H291  C282   0.92824       .     S
C283  C284   1.39985       .     S
C284  C283   1.39985       .     S
C283  H292   0.93049   1_554     S
H292  C283   0.93049   1_556     S
C284  H293   0.92972   1_554     S
H293  C284   0.92972   1_556     S
C285  H286   0.95824       .     S
H286  C285   0.95824       .     S
C285  H287   0.96037       .     S
H287  C285   0.96037       .     S
C285  H288   0.95975       .     S
H288  C285   0.95975       .     S
O294  C342   1.26692       .     S
C342  O294   1.26692       .     S
O294  H378   0.81991       .     S
H378  O294   0.81991       .     S
O295  C342   1.26480       .     S
C342  O295   1.26480       .     S
O296  C349   1.27396       .     S
C349  O296   1.27396       .     S
O297  C349   1.26987       .     S
C349  O297   1.26987       .     S
O297  H379   0.82001       .     S
H379  O297   0.82001       .     S
O298  C356   1.27007       .     S
C356  O298   1.27007       .     S
O298  H380   0.81982       .     S
H380  O298   0.81982       .     S
O299  C356   1.26782       .     S
C356  O299   1.26782       .     S
O300  C363   1.28362       .     S
C363  O300   1.28362       .     S
O300  H381   0.81981       .     S
H381  O300   0.81981       .     S
O301  C363   1.25541       .     S
C363  O301   1.25541       .     S
O302  C370   1.26250       .     S
C370  O302   1.26250       .     S
O303  C370   1.28050       .     S
C370  O303   1.28050       .     S
O303  H382   0.81984       .     S
H382  O303   0.81984       .     S
O304  C377   1.26710       .     S
C377  O304   1.26710       .     S
O304  H383   0.81999       .     S
H383  O304   0.81999       .     S
O305  C377   1.27332       .     S
C377  O305   1.27332       .     S
C306  C307   1.20894       .     S
C307  C306   1.20894       .     S
C306  C335   1.36713       .     S
C335  C306   1.36713       .     S
C307  C308   1.42901       .     S
C308  C307   1.42901       .     S
C308  C309   1.40336       .     S
C309  C308   1.40336       .     S
C308  C313   1.40741       .     S
C313  C308   1.40741       .     S
C309  C310   1.39542       .     S
C310  C309   1.39542       .     S
C309  H384   0.93002   1_545     S
H384  C309   0.93002   1_565     S
C310  C311   1.40357       .     S
C311  C310   1.40357       .     S
C310  C336   1.49799   1_545     S
C336  C310   1.49799   1_565     S
C311  C312   1.39858       .     S
C312  C311   1.39858       .     S
C311  C343   1.49382   1_556     S
C343  C311   1.49382   1_554     S
C312  C313   1.40181       .     S
C313  C312   1.40181       .     S
C312  H385   0.93006   1_556     S
H385  C312   0.93006   1_554     S
C313  C314   1.42625       .     S
C314  C313   1.42625       .     S
C314  C315   1.21394       .     S
C315  C314   1.21394       .     S
C315  C316   1.36377       .     S
C316  C315   1.36377       .     S
C316  C317   1.20137       .     S
C317  C316   1.20137       .     S
C317  C318   1.43092       .     S
C318  C317   1.43092       .     S
C318  C319   1.39967       .     S
C319  C318   1.39967       .     S
C318  C323   1.41767       .     S
C323  C318   1.41767       .     S
C319  C320   1.40343       .     S
C320  C319   1.40343       .     S
C319  H386   0.92977   1_556     S
H386  C319   0.92977   1_554     S
C320  C321   1.41469       .     S
C321  C320   1.41469       .     S
C320  C350   1.49339   1_556     S
C350  C320   1.49339   1_554     S
C321  C322   1.39012       .     S
C322  C321   1.39012       .     S
C321  C357   1.49348       .     S
C357  C321   1.49348       .     S
C322  C323   1.39969       .     S
C323  C322   1.39969       .     S
C322  H387   0.93002       .     S
H387  C322   0.93002       .     S
C323  C324   1.41710       .     S
C324  C323   1.41710       .     S
C324  C325   1.20738       .     S
C325  C324   1.20738       .     S
C325  C326   1.35753       .     S
C326  C325   1.35753       .     S
C326  C327   1.21605       .     S
C327  C326   1.21605       .     S
C327  C328   1.41763       .     S
C328  C327   1.41763       .     S
C328  C329   1.39515       .     S
C329  C328   1.39515       .     S
C328  C333   1.41849       .     S
C333  C328   1.41849       .     S
C329  C330   1.39269       .     S
C330  C329   1.39269       .     S
C329  H388   0.92998       .     S
H388  C329   0.92998       .     S
C330  C331   1.40745       .     S
C331  C330   1.40745       .     S
C330  C364   1.49515       .     S
C364  C330   1.49515       .     S
C331  C332   1.39932       .     S
C332  C331   1.39932       .     S
C331  C371   1.49310   1_545     S
C371  C331   1.49310   1_565     S
C332  C333   1.39910       .     S
C333  C332   1.39910       .     S
C332  H389   0.92993   1_545     S
H389  C332   0.92993   1_565     S
C333  C334   1.42988       .     S
C334  C333   1.42988       .     S
C334  C335   1.19589       .     S
C335  C334   1.19589       .     S
C336  C337   1.38549       .     S
C337  C336   1.38549       .     S
C336  C341   1.39355       .     S
C341  C336   1.39355       .     S
C337  C338   1.38962       .     S
C338  C337   1.38962       .     S
C337  H390   0.92994       .     S
H390  C337   0.92994       .     S
C338  C339   1.39021       .     S
C339  C338   1.39021       .     S
C338  H391   0.93003       .     S
H391  C338   0.93003       .     S
C339  C340   1.38350       .     S
C340  C339   1.38350       .     S
C339  C342   1.49157       .     S
C342  C339   1.49157       .     S
C340  C341   1.38888       .     S
C341  C340   1.38888       .     S
C340  H392   0.93015   1_556     S
H392  C340   0.93015   1_554     S
C341  H393   0.92999   1_566     S
H393  C341   0.92999   1_544     S
C343  C344   1.38073       .     S
C344  C343   1.38073       .     S
C343  C348   1.38902       .     S
C348  C343   1.38902       .     S
C344  C345   1.39608       .     S
C345  C344   1.39608       .     S
C344  H394   0.92993   1_544     S
H394  C344   0.92993   1_566     S
C345  C346   1.38308       .     S
C346  C345   1.38308       .     S
C345  H395   0.93002   1_545     S
H395  C345   0.93002   1_565     S
C346  C347   1.38908       .     S
C347  C346   1.38908       .     S
C346  C349   1.48434       .     S
C349  C346   1.48434       .     S
C347  C348   1.38885       .     S
C348  C347   1.38885       .     S
C347  H396   0.93002       .     S
H396  C347   0.93002       .     S
C348  H397   0.93004       .     S
H397  C348   0.93004       .     S
C350  C351   1.39797       .     S
C351  C350   1.39797       .     S
C350  C355   1.39554       .     S
C355  C350   1.39554       .     S
C351  C352   1.39339       .     S
C352  C351   1.39339       .     S
C351  H398   0.93000   1_554     S
H398  C351   0.93000   1_556     S
C352  C353   1.38497       .     S
C353  C352   1.38497       .     S
C352  H399   0.93006       .     S
H399  C352   0.93006       .     S
C353  C354   1.38806       .     S
C354  C353   1.38806       .     S
C353  C356   1.48920       .     S
C356  C353   1.48920       .     S
C354  C355   1.39258       .     S
C355  C354   1.39258       .     S
C354  H400   0.93005       .     S
H400  C354   0.93005       .     S
C355  H401   0.92975       .     S
H401  C355   0.92975       .     S
C357  C358   1.38499       .     S
C358  C357   1.38499       .     S
C357  C362   1.39075       .     S
C362  C357   1.39075       .     S
C358  C359   1.39485       .     S
C359  C358   1.39485       .     S
C358  H402   0.93002       .     S
H402  C358   0.93002       .     S
C359  C360   1.38234       .     S
C360  C359   1.38234       .     S
C359  H403   0.92992       .     S
H403  C359   0.92992       .     S
C360  C361   1.38500       .     S
C361  C360   1.38500       .     S
C360  C363   1.49115       .     S
C363  C360   1.49115       .     S
C361  C362   1.38796       .     S
C362  C361   1.38796       .     S
C361  H404   0.92994       .     S
H404  C361   0.92994       .     S
C362  H405   0.93007       .     S
H405  C362   0.93007       .     S
C364  C365   1.39652       .     S
C365  C364   1.39652       .     S
C364  C369   1.38491       .     S
C369  C364   1.38491       .     S
C365  C366   1.38433       .     S
C366  C365   1.38433       .     S
C365  H406   0.93004       .     S
H406  C365   0.93004       .     S
C366  C367   1.39891       .     S
C367  C366   1.39891       .     S
C366  H407   0.93008       .     S
H407  C366   0.93008       .     S
C367  C368   1.37338       .     S
C368  C367   1.37338       .     S
C367  C370   1.49315       .     S
C370  C367   1.49315       .     S
C368  C369   1.39347       .     S
C369  C368   1.39347       .     S
C368  H408   0.92999       .     S
H408  C368   0.92999       .     S
C369  H409   0.93003       .     S
H409  C369   0.93003       .     S
C371  C372   1.39510       .     S
C372  C371   1.39510       .     S
C371  C376   1.39696       .     S
C376  C371   1.39696       .     S
C372  C373   1.39647       .     S
C373  C372   1.39647       .     S
C372  H410   0.93034       .     S
H410  C372   0.93034       .     S
C373  C374   1.38560       .     S
C374  C373   1.38560       .     S
C373  H411   0.93007       .     S
H411  C373   0.93007       .     S
C374  C375   1.39508       .     S
C375  C374   1.39508       .     S
C374  C377   1.48379       .     S
C377  C374   1.48379       .     S
C375  C376   1.38981       .     S
C376  C375   1.38981       .     S
C375  H412   0.93004       .     S
H412  C375   0.93004       .     S
C376  H413   0.92991   1_565     S
H413  C376   0.92991   1_545     S
O414  C416   1.19739       .     S
C416  O414   1.19739       .     S
O415  C416   1.38862       .     S
C416  O415   1.38862       .     S
O415  C423   1.35415       .     S
C423  O415   1.35415       .     S
C416  C417   1.45493       .     S
C417  C416   1.45493       .     S
C417  C418   1.41169       .     S
C418  C417   1.41169       .     S
C417  C422   1.35913       .     S
C422  C417   1.35913       .     S
C418  C419   1.35147       .     S
C419  C418   1.35147       .     S
C418  H427   0.93106   1_565     S
H427  C418   0.93106   1_545     S
C419  C420   1.36034       .     S
C420  C419   1.36034       .     S
C419  H428   0.92945   1_665     S
H428  C419   0.92945   1_445     S
C420  C421   1.33036       .     S
C421  C420   1.33036       .     S
C420  H429   0.93021       .     S
H429  C420   0.93021       .     S
C421  C422   1.35836       .     S
C422  C421   1.35836       .     S
C421  H430   0.92956       .     S
H430  C421   0.92956       .     S
C422  H431   0.93057       .     S
H431  C422   0.93057       .     S
C423  H424   0.96041       .     S
H424  C423   0.96041       .     S
C423  H425   0.96051       .     S
H425  C423   0.96051       .     S
C423  H426   0.95931       .     S
H426  C423   0.95931       .     S
O6    H84    1.80524       .     S
H84   O6     1.80524       .     S
O9    H85    1.78920       .     S
H85   O9     1.78920       .     S
O10   H86    1.78466       .     S
H86   O10    1.78466       .     S
O1    H87    1.81656       .     S
H87   O1     1.81656       .     S
O3    H88    1.82023       .     S
H88   O3     1.82023       .     S
O4    H89    1.80272       .     S
H89   O4     1.80272       .     S
O163  H240   1.81265       .     S
H240  O163   1.81265       .     S
O164  H242   1.81833       .     S
H242  O164   1.81833       .     S
O166  H243   1.83053       .     S
H243  O166   1.83053       .     S
O157  H245   1.78560       .     S
H245  O157   1.78560       .     S
O158  H246   1.78328       .     S
H246  O158   1.78328       .     S
O160  H247   1.80798       .     S
H247  O160   1.80798       .     S
O301  H378   1.81246       .     S
H378  O301   1.81246       .     S
O302  H379   1.81337       .     S
H379  O302   1.81337       .     S
O305  H380   1.83046       .     S
H380  O305   1.83046       .     S
O295  H381   1.83954       .     S
H381  O295   1.83954       .     S
O296  H382   1.83963       .     S
H382  O296   1.83963       .     S
O299  H383   1.84155       .     S
H383  O299   1.84155       .     S
C48   O0     1.28961       .     S
O0    C48    1.28961       .     S
H84   O0     0.81999       .     S
O0    H84    0.81999       .     S
C48   O1     1.23605       .     S
O1    C48    1.23605       .     S
C55   O2     1.30720       .     S
O2    C55    1.30720       .     S
H85   O2     0.81997       .     S
O2    H85    0.81997       .     S
C55   O3     1.21000       .     S
O3    C55    1.21000       .     S
C62   O4     1.24275       .     S
O4    C62    1.24275       .     S
C62   O5     1.29059       .     S
O5    C62    1.29059       .     S
H86   O5     0.82006       .     S
O5    H86    0.82006       .     S
C69   O6     1.23301       .     S
O6    C69    1.23301       .     S
C69   O7     1.31681       .     S
O7    C69    1.31681       .     S
H87   O7     0.81988       .     S
O7    H87    0.81988       .     S
C76   O8     1.30072       .     S
O8    C76    1.30072       .     S
H88   O8     0.82003       .     S
O8    H88    0.82003       .     S
C76   O9     1.23171       .     S
O9    C76    1.23171       .     S
C83   O10    1.25303       .     S
O10   C83    1.25303       .     S
C83   O11    1.27559       .     S
O11   C83    1.27559       .     S
H89   O11    0.81998       .     S
O11   H89    0.81998       .     S
C13   C12    1.19832       .     S
C12   C13    1.19832       .     S
C41   C12    1.37602       .     S
C12   C41    1.37602       .     S
C14   C13    1.42176       .     S
C13   C14    1.42176       .     S
C15   C14    1.39844       .     S
C14   C15    1.39844       .     S
C19   C14    1.42033       .     S
C14   C19    1.42033       .     S
C16   C15    1.38297       .     S
C15   C16    1.38297       .     S
H90   C15    0.93000       .     S
C15   H90    0.93000       .     S
C17   C16    1.42236       .     S
C16   C17    1.42236       .     S
C42   C16    1.48263       .     S
C16   C42    1.48263       .     S
C18   C17    1.39767       .     S
C17   C18    1.39767       .     S
C49   C17    1.48462       .     S
C17   C49    1.48462       .     S
C19   C18    1.38982       .     S
C18   C19    1.38982       .     S
H91   C18    0.92997       .     S
C18   H91    0.92997       .     S
C20   C19    1.42740       .     S
C19   C20    1.42740       .     S
C21   C20    1.20285       .     S
C20   C21    1.20285       .     S
C22   C21    1.37142       .     S
C21   C22    1.37142       .     S
C23   C22    1.20870       .     S
C22   C23    1.20870       .     S
C24   C23    1.41263       .     S
C23   C24    1.41263       .     S
C25   C24    1.39970       .     S
C24   C25    1.39970       .     S
C29   C24    1.41363       .     S
C24   C29    1.41363       .     S
C26   C25    1.39733       .     S
C25   C26    1.39733       .     S
H92   C25    0.93015       .     S
C25   H92    0.93015       .     S
C27   C26    1.40868       .     S
C26   C27    1.40868       .     S
C56   C26    1.49136       .     S
C26   C56    1.49136       .     S
C28   C27    1.39409       .     S
C27   C28    1.39409       .     S
C63   C27    1.49355       .     S
C27   C63    1.49355       .     S
C29   C28    1.39155       .     S
C28   C29    1.39155       .     S
H93   C28    0.93001       .     S
C28   H93    0.93001       .     S
C30   C29    1.42869       .     S
C29   C30    1.42869       .     S
C31   C30    1.20344       .     S
C30   C31    1.20344       .     S
C32   C31    1.36803       .     S
C31   C32    1.36803       .     S
C33   C32    1.19730       .     S
C32   C33    1.19730       .     S
C34   C33    1.42882   1_565     S
C33   C34    1.42882   1_545     S
C35   C34    1.39475       .     S
C34   C35    1.39475       .     S
C39   C34    1.41498       .     S
C34   C39    1.41498       .     S
C36   C35    1.39837       .     S
C35   C36    1.39837       .     S
H94   C35    0.93026       .     S
C35   H94    0.93026       .     S
C37   C36    1.41953       .     S
C36   C37    1.41953       .     S
C70   C36    1.48416       .     S
C36   C70    1.48416       .     S
C38   C37    1.38948       .     S
C37   C38    1.38948       .     S
C77   C37    1.49682       .     S
C37   C77    1.49682       .     S
C39   C38    1.39966       .     S
C38   C39    1.39966       .     S
H95   C38    0.93012       .     S
C38   H95    0.93012       .     S
C40   C39    1.42078   1_545     S
C39   C40    1.42078   1_565     S
C41   C40    1.20368       .     S
C40   C41    1.20368       .     S
C43   C42    1.39683       .     S
C42   C43    1.39683       .     S
C47   C42    1.39166       .     S
C42   C47    1.39166       .     S
C44   C43    1.38689       .     S
C43   C44    1.38689       .     S
H96   C43    0.92995       .     S
C43   H96    0.92995       .     S
C45   C44    1.38014       .     S
C44   C45    1.38014       .     S
H97   C44    0.93010       .     S
C44   H97    0.93010       .     S
C46   C45    1.39494       .     S
C45   C46    1.39494       .     S
C48   C45    1.48931   1_554     S
C45   C48    1.48930   1_556     S
C47   C46    1.37919       .     S
C46   C47    1.37919       .     S
H98   C46    0.93000   1_554     S
C46   H98    0.93000   1_556     S
H99   C47    0.93011       .     S
C47   H99    0.93011       .     S
C50   C49    1.37900       .     S
C49   C50    1.37900       .     S
C54   C49    1.39642       .     S
C49   C54    1.39642       .     S
C51   C50    1.39446       .     S
C50   C51    1.39446       .     S
H100  C50    0.93000       .     S
C50   H100   0.93000       .     S
C52   C51    1.38909       .     S
C51   C52    1.38909       .     S
H101  C51    0.93009       .     S
C51   H101   0.93009       .     S
C53   C52    1.38526       .     S
C52   C53    1.38526       .     S
C55   C52    1.47909   1_554     S
C52   C55    1.47909   1_556     S
C54   C53    1.38202       .     S
C53   C54    1.38202       .     S
H102  C53    0.93013       .     S
C53   H102   0.93013       .     S
H103  C54    0.92999       .     S
C54   H103   0.92999       .     S
C57   C56    1.37629       .     S
C56   C57    1.37629       .     S
C61   C56    1.40480       .     S
C56   C61    1.40480       .     S
C58   C57    1.37994       .     S
C57   C58    1.37994       .     S
H104  C57    0.93013       .     S
C57   H104   0.93013       .     S
C59   C58    1.38289       .     S
C58   C59    1.38289       .     S
H105  C58    0.92983       .     S
C58   H105   0.92983       .     S
C60   C59    1.37200       .     S
C59   C60    1.37200       .     S
C62   C59    1.49817       .     S
C59   C62    1.49817       .     S
C61   C60    1.38947       .     S
C60   C61    1.38947       .     S
H106  C60    0.92994       .     S
C60   H106   0.92994       .     S
H107  C61    0.93013       .     S
C61   H107   0.93013       .     S
C64   C63    1.36467       .     S
C63   C64    1.36467       .     S
C68   C63    1.37064       .     S
C63   C68    1.37064       .     S
C65   C64    1.39246       .     S
C64   C65    1.39246       .     S
H108  C64    0.93017       .     S
C64   H108   0.93017       .     S
C66   C65    1.37315       .     S
C65   C66    1.37315       .     S
H109  C65    0.92988       .     S
C65   H109   0.92988       .     S
C67   C66    1.36235       .     S
C66   C67    1.36235       .     S
C69   C66    1.47376       .     S
C66   C69    1.47376       .     S
C68   C67    1.40347       .     S
C67   C68    1.40347       .     S
H110  C67    0.93020       .     S
C67   H110   0.93020       .     S
H111  C68    0.92973       .     S
C68   H111   0.92973       .     S
C71   C70    1.39869       .     S
C70   C71    1.39869       .     S
C75   C70    1.38727       .     S
C70   C75    1.38727       .     S
C72   C71    1.38325       .     S
C71   C72    1.38325       .     S
H112  C71    0.93001       .     S
C71   H112   0.93001       .     S
C73   C72    1.39336       .     S
C72   C73    1.39336       .     S
H113  C72    0.93001       .     S
C72   H113   0.93001       .     S
C74   C73    1.38408       .     S
C73   C74    1.38408       .     S
C76   C73    1.47929       .     S
C73   C76    1.47929       .     S
C75   C74    1.39585       .     S
C74   C75    1.39585       .     S
H114  C74    0.93000       .     S
C74   H114   0.93000       .     S
H115  C75    0.93007       .     S
C75   H115   0.93007       .     S
C78   C77    1.38975       .     S
C77   C78    1.38975       .     S
C82   C77    1.37462       .     S
C77   C82    1.37462       .     S
C79   C78    1.38691       .     S
C78   C79    1.38691       .     S
H116  C78    0.93024       .     S
C78   H116   0.93024       .     S
C80   C79    1.37853       .     S
C79   C80    1.37853       .     S
H117  C79    0.93002       .     S
C79   H117   0.93002       .     S
C81   C80    1.40366       .     S
C80   C81    1.40366       .     S
C83   C80    1.48814       .     S
C80   C83    1.48814       .     S
C82   C81    1.39513       .     S
C81   C82    1.39513       .     S
H118  C81    0.93010       .     S
C81   H118   0.93010       .     S
H119  C82    0.92986       .     S
C82   H119   0.92986       .     S
C122  O120   1.31840       .     S
O120  C122   1.31840       .     S
C129  O120   1.42235       .     S
O120  C129   1.42235       .     S
C122  O121   1.23842       .     S
O121  C122   1.23842       .     S
C123  C122   1.44292       .     S
C122  C123   1.44292       .     S
C124  C123   1.37634       .     S
C123  C124   1.37634       .     S
C128  C123   1.37597       .     S
C123  C128   1.37597       .     S
C125  C124   1.35728       .     S
C124  C125   1.35728       .     S
H133  C124   0.93102       .     S
C124  H133   0.93102       .     S
C126  C125   1.43206       .     S
C125  C126   1.43206       .     S
H134  C125   0.92966       .     S
C125  H134   0.92966       .     S
C127  C126   1.35003       .     S
C126  C127   1.35003       .     S
H135  C126   0.93070       .     S
C126  H135   0.93070       .     S
C128  C127   1.37744       .     S
C127  C128   1.37744       .     S
H136  C127   0.93006       .     S
C127  H136   0.93006       .     S
H137  C128   0.93021       .     S
C128  H137   0.93021       .     S
H130  C129   0.96109       .     S
C129  H130   0.96109       .     S
H131  C129   0.95909       .     S
C129  H131   0.95909       .     S
H132  C129   0.96010       .     S
C129  H132   0.96010       .     S
C140  O138   1.33663       .     S
O138  C140   1.33663       .     S
C147  O138   1.42992       .     S
O138  C147   1.42992       .     S
C140  O139   1.23375       .     S
O139  C140   1.23375       .     S
C141  C140   1.43584       .     S
C140  C141   1.43584       .     S
C142  C141   1.38307       .     S
C141  C142   1.38307       .     S
C146  C141   1.38726       .     S
C141  C146   1.38726       .     S
C143  C142   1.38293       .     S
C142  C143   1.38293       .     S
H151  C142   0.92970       .     S
C142  H151   0.92970       .     S
C144  C143   1.35625       .     S
C143  C144   1.35625       .     S
H152  C143   0.93112       .     S
C143  H152   0.93112       .     S
C145  C144   1.43338       .     S
C144  C145   1.43338       .     S
H153  C144   0.93051       .     S
C144  H153   0.93051       .     S
C146  C145   1.34989       .     S
C145  C146   1.34989       .     S
H154  C145   0.92952       .     S
C145  H154   0.92952       .     S
H155  C146   0.92980       .     S
C146  H155   0.92980       .     S
H148  C147   0.96013       .     S
C147  H148   0.96013       .     S
H149  C147   0.95953       .     S
C147  H149   0.95953       .     S
H150  C147   0.96033       .     S
C147  H150   0.96033       .     S
C204  O156   1.27584       .     S
O156  C204   1.27584       .     S
H240  O156   0.82005       .     S
O156  H240   0.82005       .     S
C204  O157   1.26814       .     S
O157  C204   1.26814       .     S
C211  O158   1.23885       .     S
O158  C211   1.23885       .     S
C211  O159   1.29016       .     S
O159  C211   1.29016       .     S
H242  O159   0.82005       .     S
O159  H242   0.82005       .     S
C218  O160   1.23721       .     S
O160  C218   1.23721       .     S
C218  O161   1.30883       .     S
O161  C218   1.30883       .     S
H243  O161   0.82001       .     S
O161  H243   0.82001       .     S
C225  O162   1.27483       .     S
O162  C225   1.27483       .     S
H245  O162   0.82023       .     S
O162  H245   0.82023       .     S
C225  O163   1.25708       .     S
O163  C225   1.25708       .     S
C232  O164   1.21947       .     S
O164  C232   1.21947       .     S
C232  O165   1.30382       .     S
O165  C232   1.30382       .     S
H246  O165   0.82003       .     S
O165  H246   0.82003       .     S
C239  O166   1.23930       .     S
O166  C239   1.23930       .     S
C239  O167   1.29251       .     S
O167  C239   1.29251       .     S
H247  O167   0.81990       .     S
O167  H247   0.81990       .     S
C169  C168   1.20356       .     S
C168  C169   1.20356       .     S
C197  C168   1.37453       .     S
C168  C197   1.37453       .     S
C170  C169   1.42460   1_554     S
C169  C170   1.42460   1_556     S
C171  C170   1.38840       .     S
C170  C171   1.38840       .     S
C175  C170   1.42156       .     S
C170  C175   1.42156       .     S
C172  C171   1.38909       .     S
C171  C172   1.38909       .     S
H241  C171   0.93008       .     S
C171  H241   0.93008       .     S
C173  C172   1.41857       .     S
C172  C173   1.41857       .     S
C198  C172   1.49193       .     S
C172  C198   1.49193       .     S
C174  C173   1.39326       .     S
C173  C174   1.39326       .     S
C205  C173   1.48650       .     S
C173  C205   1.48650       .     S
C175  C174   1.39553       .     S
C174  C175   1.39553       .     S
H244  C174   0.92979       .     S
C174  H244   0.92979       .     S
C176  C175   1.42721   1_556     S
C175  C176   1.42721   1_554     S
C177  C176   1.20041       .     S
C176  C177   1.20041       .     S
C178  C177   1.36752       .     S
C177  C178   1.36752       .     S
C179  C178   1.20221       .     S
C178  C179   1.20221       .     S
C180  C179   1.42969       .     S
C179  C180   1.42969       .     S
C181  C180   1.39630       .     S
C180  C181   1.39630       .     S
C185  C180   1.40730       .     S
C180  C185   1.40730       .     S
C182  C181   1.38184       .     S
C181  C182   1.38184       .     S
H248  C181   0.93006       .     S
C181  H248   0.93006       .     S
C183  C182   1.41456       .     S
C182  C183   1.41456       .     S
C212  C182   1.49251       .     S
C182  C212   1.49251       .     S
C184  C183   1.39640       .     S
C183  C184   1.39640       .     S
C219  C183   1.48837       .     S
C183  C219   1.48837       .     S
C185  C184   1.39274       .     S
C184  C185   1.39274       .     S
H249  C184   0.92996       .     S
C184  H249   0.92996       .     S
C186  C185   1.42132       .     S
C185  C186   1.42132       .     S
C187  C186   1.21124       .     S
C186  C187   1.21124       .     S
C188  C187   1.36603       .     S
C187  C188   1.36603       .     S
C189  C188   1.20604       .     S
C188  C189   1.20604       .     S
C190  C189   1.42738       .     S
C189  C190   1.42738       .     S
C191  C190   1.39284       .     S
C190  C191   1.39284       .     S
C195  C190   1.40859       .     S
C190  C195   1.40859       .     S
C192  C191   1.39941       .     S
C191  C192   1.39941       .     S
H250  C191   0.92999       .     S
C191  H250   0.92999       .     S
C193  C192   1.41681       .     S
C192  C193   1.41681       .     S
C226  C192   1.48901       .     S
C192  C226   1.48901       .     S
C194  C193   1.38296       .     S
C193  C194   1.38296       .     S
C233  C193   1.49285       .     S
C193  C233   1.49285       .     S
C195  C194   1.40116       .     S
C194  C195   1.40116       .     S
H251  C194   0.93013       .     S
C194  H251   0.93013       .     S
C196  C195   1.42995       .     S
C195  C196   1.42995       .     S
C197  C196   1.19660       .     S
C196  C197   1.19660       .     S
C199  C198   1.38021       .     S
C198  C199   1.38021       .     S
C203  C198   1.39305       .     S
C198  C203   1.39305       .     S
C200  C199   1.39029       .     S
C199  C200   1.39029       .     S
H252  C199   0.93019       .     S
C199  H252   0.93019       .     S
C201  C200   1.40116       .     S
C200  C201   1.40116       .     S
H253  C200   0.93016       .     S
C200  H253   0.93016       .     S
C202  C201   1.37295       .     S
C201  C202   1.37295       .     S
C204  C201   1.48773       .     S
C201  C204   1.48773       .     S
C203  C202   1.38534       .     S
C202  C203   1.38534       .     S
H254  C202   0.93015       .     S
C202  H254   0.93015       .     S
H255  C203   0.93003       .     S
C203  H255   0.93003       .     S
C206  C205   1.39510       .     S
C205  C206   1.39510       .     S
C210  C205   1.39339       .     S
C205  C210   1.39339       .     S
C207  C206   1.39747       .     S
C206  C207   1.39747       .     S
H256  C206   0.93007       .     S
C206  H256   0.93007       .     S
C208  C207   1.38316       .     S
C207  C208   1.38316       .     S
H257  C207   0.93013       .     S
C207  H257   0.93013       .     S
C209  C208   1.39803       .     S
C208  C209   1.39803       .     S
C211  C208   1.48582       .     S
C208  C211   1.48582       .     S
C210  C209   1.38452       .     S
C209  C210   1.38452       .     S
H258  C209   0.93006       .     S
C209  H258   0.93006       .     S
H259  C210   0.92990       .     S
C210  H259   0.92990       .     S
C213  C212   1.35055       .     S
C212  C213   1.35055       .     S
C217  C212   1.36932       .     S
C212  C217   1.36932       .     S
C214  C213   1.40829       .     S
C213  C214   1.40829       .     S
H260  C213   0.92982       .     S
C213  H260   0.92982       .     S
C215  C214   1.37618       .     S
C214  C215   1.37618       .     S
H261  C214   0.93014       .     S
C214  H261   0.93014       .     S
C216  C215   1.35405       .     S
C215  C216   1.35405       .     S
C218  C215   1.48686       .     S
C215  C218   1.48686       .     S
C217  C216   1.39642       .     S
C216  C217   1.39642       .     S
H262  C216   0.93005       .     S
C216  H262   0.93005       .     S
H263  C217   0.93002       .     S
C217  H263   0.93002       .     S
C220  C219   1.40043       .     S
C219  C220   1.40043       .     S
C224  C219   1.38164       .     S
C219  C224   1.38164       .     S
C221  C220   1.38737       .     S
C220  C221   1.38737       .     S
H264  C220   0.92988       .     S
C220  H264   0.92988       .     S
C222  C221   1.38135       .     S
C221  C222   1.38135       .     S
H265  C221   0.92995       .     S
C221  H265   0.92995       .     S
C223  C222   1.38323       .     S
C222  C223   1.38323       .     S
C225  C222   1.49018       .     S
C222  C225   1.49018       .     S
C224  C223   1.38725       .     S
C223  C224   1.38725       .     S
H266  C223   0.93003       .     S
C223  H266   0.93003       .     S
H267  C224   0.92990       .     S
C224  H267   0.92990       .     S
C227  C226   1.39611       .     S
C226  C227   1.39611       .     S
C231  C226   1.38589       .     S
C226  C231   1.38589       .     S
C228  C227   1.39653       .     S
C227  C228   1.39653       .     S
H268  C227   0.92997       .     S
C227  H268   0.92997       .     S
C229  C228   1.37862       .     S
C228  C229   1.37862       .     S
H269  C228   0.93011       .     S
C228  H269   0.93011       .     S
C230  C229   1.39125       .     S
C229  C230   1.39125       .     S
C232  C229   1.48605   1_565     S
C229  C232   1.48605   1_545     S
C231  C230   1.39538       .     S
C230  C231   1.39538       .     S
H270  C230   0.92994       .     S
C230  H270   0.92994       .     S
H271  C231   0.92983       .     S
C231  H271   0.92983       .     S
C234  C233   1.39381       .     S
C233  C234   1.39381       .     S
C238  C233   1.38704       .     S
C233  C238   1.38704       .     S
C235  C234   1.38143       .     S
C234  C235   1.38143       .     S
H272  C234   0.92987       .     S
C234  H272   0.92987       .     S
C236  C235   1.39569       .     S
C235  C236   1.39569       .     S
H273  C235   0.93001   1_565     S
C235  H273   0.93001   1_545     S
C237  C236   1.38327       .     S
C236  C237   1.38327       .     S
C239  C236   1.48535   1_565     S
C236  C239   1.48535   1_545     S
C238  C237   1.39393       .     S
C237  C238   1.39393       .     S
H274  C237   0.93003       .     S
C237  H274   0.93003       .     S
H275  C238   0.93003       .     S
C238  H275   0.93003       .     S
C278  O276   1.35905       .     S
O276  C278   1.35905       .     S
C285  O276   1.34789       .     S
O276  C285   1.34789       .     S
C278  O277   1.22367       .     S
O277  C278   1.22367       .     S
C279  C278   1.45814       .     S
C278  C279   1.45814       .     S
C280  C279   1.36516       .     S
C279  C280   1.36516       .     S
C284  C279   1.39748       .     S
C279  C284   1.39748       .     S
C281  C280   1.37046       .     S
C280  C281   1.37046       .     S
H289  C280   0.92925       .     S
C280  H289   0.92925       .     S
C282  C281   1.32175       .     S
C281  C282   1.32175       .     S
H290  C281   0.93120       .     S
C281  H290   0.93120       .     S
C283  C282   1.34386       .     S
C282  C283   1.34386       .     S
H291  C282   0.92824       .     S
C282  H291   0.92824       .     S
C284  C283   1.39985       .     S
C283  C284   1.39985       .     S
H292  C283   0.93049   1_556     S
C283  H292   0.93049   1_554     S
H293  C284   0.92972   1_556     S
C284  H293   0.92972   1_554     S
H286  C285   0.95824       .     S
C285  H286   0.95824       .     S
H287  C285   0.96037       .     S
C285  H287   0.96037       .     S
H288  C285   0.95975       .     S
C285  H288   0.95975       .     S
C342  O294   1.26692       .     S
O294  C342   1.26692       .     S
H378  O294   0.81991       .     S
O294  H378   0.81991       .     S
C342  O295   1.26480       .     S
O295  C342   1.26480       .     S
C349  O296   1.27396       .     S
O296  C349   1.27396       .     S
C349  O297   1.26987       .     S
O297  C349   1.26987       .     S
H379  O297   0.82001       .     S
O297  H379   0.82001       .     S
C356  O298   1.27007       .     S
O298  C356   1.27007       .     S
H380  O298   0.81982       .     S
O298  H380   0.81982       .     S
C356  O299   1.26782       .     S
O299  C356   1.26782       .     S
C363  O300   1.28362       .     S
O300  C363   1.28362       .     S
H381  O300   0.81981       .     S
O300  H381   0.81981       .     S
C363  O301   1.25541       .     S
O301  C363   1.25541       .     S
C370  O302   1.26250       .     S
O302  C370   1.26250       .     S
C370  O303   1.28050       .     S
O303  C370   1.28050       .     S
H382  O303   0.81984       .     S
O303  H382   0.81984       .     S
C377  O304   1.26710       .     S
O304  C377   1.26710       .     S
H383  O304   0.81999       .     S
O304  H383   0.81999       .     S
C377  O305   1.27332       .     S
O305  C377   1.27332       .     S
C307  C306   1.20894       .     S
C306  C307   1.20894       .     S
C335  C306   1.36713       .     S
C306  C335   1.36713       .     S
C308  C307   1.42901       .     S
C307  C308   1.42901       .     S
C309  C308   1.40336       .     S
C308  C309   1.40336       .     S
C313  C308   1.40741       .     S
C308  C313   1.40741       .     S
C310  C309   1.39542       .     S
C309  C310   1.39542       .     S
H384  C309   0.93002   1_565     S
C309  H384   0.93002   1_545     S
C311  C310   1.40357       .     S
C310  C311   1.40357       .     S
C336  C310   1.49799   1_565     S
C310  C336   1.49799   1_545     S
C312  C311   1.39858       .     S
C311  C312   1.39858       .     S
C343  C311   1.49382   1_554     S
C311  C343   1.49382   1_556     S
C313  C312   1.40181       .     S
C312  C313   1.40181       .     S
H385  C312   0.93006   1_554     S
C312  H385   0.93006   1_556     S
C314  C313   1.42625       .     S
C313  C314   1.42625       .     S
C315  C314   1.21394       .     S
C314  C315   1.21394       .     S
C316  C315   1.36377       .     S
C315  C316   1.36377       .     S
C317  C316   1.20137       .     S
C316  C317   1.20137       .     S
C318  C317   1.43092       .     S
C317  C318   1.43092       .     S
C319  C318   1.39967       .     S
C318  C319   1.39967       .     S
C323  C318   1.41767       .     S
C318  C323   1.41767       .     S
C320  C319   1.40343       .     S
C319  C320   1.40343       .     S
H386  C319   0.92977   1_554     S
C319  H386   0.92977   1_556     S
C321  C320   1.41469       .     S
C320  C321   1.41469       .     S
C350  C320   1.49339   1_554     S
C320  C350   1.49339   1_556     S
C322  C321   1.39012       .     S
C321  C322   1.39012       .     S
C357  C321   1.49348       .     S
C321  C357   1.49348       .     S
C323  C322   1.39969       .     S
C322  C323   1.39969       .     S
H387  C322   0.93002       .     S
C322  H387   0.93002       .     S
C324  C323   1.41710       .     S
C323  C324   1.41710       .     S
C325  C324   1.20738       .     S
C324  C325   1.20738       .     S
C326  C325   1.35753       .     S
C325  C326   1.35753       .     S
C327  C326   1.21605       .     S
C326  C327   1.21605       .     S
C328  C327   1.41763       .     S
C327  C328   1.41763       .     S
C329  C328   1.39515       .     S
C328  C329   1.39515       .     S
C333  C328   1.41849       .     S
C328  C333   1.41849       .     S
C330  C329   1.39269       .     S
C329  C330   1.39269       .     S
H388  C329   0.92998       .     S
C329  H388   0.92998       .     S
C331  C330   1.40745       .     S
C330  C331   1.40745       .     S
C364  C330   1.49515       .     S
C330  C364   1.49515       .     S
C332  C331   1.39932       .     S
C331  C332   1.39932       .     S
C371  C331   1.49310   1_565     S
C331  C371   1.49310   1_545     S
C333  C332   1.39910       .     S
C332  C333   1.39910       .     S
H389  C332   0.92993   1_565     S
C332  H389   0.92993   1_545     S
C334  C333   1.42988       .     S
C333  C334   1.42988       .     S
C335  C334   1.19589       .     S
C334  C335   1.19589       .     S
C337  C336   1.38549       .     S
C336  C337   1.38549       .     S
C341  C336   1.39355       .     S
C336  C341   1.39355       .     S
C338  C337   1.38962       .     S
C337  C338   1.38962       .     S
H390  C337   0.92994       .     S
C337  H390   0.92994       .     S
C339  C338   1.39021       .     S
C338  C339   1.39021       .     S
H391  C338   0.93003       .     S
C338  H391   0.93003       .     S
C340  C339   1.38350       .     S
C339  C340   1.38350       .     S
C342  C339   1.49157       .     S
C339  C342   1.49157       .     S
C341  C340   1.38888       .     S
C340  C341   1.38888       .     S
H392  C340   0.93015   1_554     S
C340  H392   0.93015   1_556     S
H393  C341   0.92999   1_544     S
C341  H393   0.92999   1_566     S
C344  C343   1.38073       .     S
C343  C344   1.38073       .     S
C348  C343   1.38902       .     S
C343  C348   1.38902       .     S
C345  C344   1.39608       .     S
C344  C345   1.39608       .     S
H394  C344   0.92993   1_566     S
C344  H394   0.92993   1_544     S
C346  C345   1.38308       .     S
C345  C346   1.38308       .     S
H395  C345   0.93002   1_565     S
C345  H395   0.93002   1_545     S
C347  C346   1.38908       .     S
C346  C347   1.38908       .     S
C349  C346   1.48434       .     S
C346  C349   1.48434       .     S
C348  C347   1.38885       .     S
C347  C348   1.38885       .     S
H396  C347   0.93002       .     S
C347  H396   0.93002       .     S
H397  C348   0.93004       .     S
C348  H397   0.93004       .     S
C351  C350   1.39797       .     S
C350  C351   1.39797       .     S
C355  C350   1.39554       .     S
C350  C355   1.39554       .     S
C352  C351   1.39339       .     S
C351  C352   1.39339       .     S
H398  C351   0.93000   1_556     S
C351  H398   0.93000   1_554     S
C353  C352   1.38497       .     S
C352  C353   1.38497       .     S
H399  C352   0.93006       .     S
C352  H399   0.93006       .     S
C354  C353   1.38806       .     S
C353  C354   1.38806       .     S
C356  C353   1.48920       .     S
C353  C356   1.48920       .     S
C355  C354   1.39258       .     S
C354  C355   1.39258       .     S
H400  C354   0.93005       .     S
C354  H400   0.93005       .     S
H401  C355   0.92975       .     S
C355  H401   0.92975       .     S
C358  C357   1.38499       .     S
C357  C358   1.38499       .     S
C362  C357   1.39075       .     S
C357  C362   1.39075       .     S
C359  C358   1.39485       .     S
C358  C359   1.39485       .     S
H402  C358   0.93002       .     S
C358  H402   0.93002       .     S
C360  C359   1.38234       .     S
C359  C360   1.38234       .     S
H403  C359   0.92992       .     S
C359  H403   0.92992       .     S
C361  C360   1.38500       .     S
C360  C361   1.38500       .     S
C363  C360   1.49115       .     S
C360  C363   1.49115       .     S
C362  C361   1.38796       .     S
C361  C362   1.38796       .     S
H404  C361   0.92994       .     S
C361  H404   0.92994       .     S
H405  C362   0.93007       .     S
C362  H405   0.93007       .     S
C365  C364   1.39652       .     S
C364  C365   1.39652       .     S
C369  C364   1.38491       .     S
C364  C369   1.38491       .     S
C366  C365   1.38433       .     S
C365  C366   1.38433       .     S
H406  C365   0.93004       .     S
C365  H406   0.93004       .     S
C367  C366   1.39891       .     S
C366  C367   1.39891       .     S
H407  C366   0.93008       .     S
C366  H407   0.93008       .     S
C368  C367   1.37338       .     S
C367  C368   1.37338       .     S
C370  C367   1.49315       .     S
C367  C370   1.49315       .     S
C369  C368   1.39347       .     S
C368  C369   1.39347       .     S
H408  C368   0.92999       .     S
C368  H408   0.92999       .     S
H409  C369   0.93003       .     S
C369  H409   0.93003       .     S
C372  C371   1.39510       .     S
C371  C372   1.39510       .     S
C376  C371   1.39696       .     S
C371  C376   1.39696       .     S
C373  C372   1.39647       .     S
C372  C373   1.39647       .     S
H410  C372   0.93034       .     S
C372  H410   0.93034       .     S
C374  C373   1.38560       .     S
C373  C374   1.38560       .     S
H411  C373   0.93007       .     S
C373  H411   0.93007       .     S
C375  C374   1.39508       .     S
C374  C375   1.39508       .     S
C377  C374   1.48379       .     S
C374  C377   1.48379       .     S
C376  C375   1.38981       .     S
C375  C376   1.38981       .     S
H412  C375   0.93004       .     S
C375  H412   0.93004       .     S
H413  C376   0.92991   1_545     S
C376  H413   0.92991   1_565     S
C416  O414   1.19739       .     S
O414  C416   1.19739       .     S
C416  O415   1.38862       .     S
O415  C416   1.38862       .     S
C423  O415   1.35415       .     S
O415  C423   1.35415       .     S
C417  C416   1.45493       .     S
C416  C417   1.45493       .     S
C418  C417   1.41169       .     S
C417  C418   1.41169       .     S
C422  C417   1.35913       .     S
C417  C422   1.35913       .     S
C419  C418   1.35147       .     S
C418  C419   1.35147       .     S
H427  C418   0.93106   1_545     S
C418  H427   0.93106   1_565     S
C420  C419   1.36034       .     S
C419  C420   1.36034       .     S
H428  C419   0.92945   1_445     S
C419  H428   0.92945   1_665     S
C421  C420   1.33036       .     S
C420  C421   1.33036       .     S
H429  C420   0.93021       .     S
C420  H429   0.93021       .     S
C422  C421   1.35836       .     S
C421  C422   1.35836       .     S
H430  C421   0.92956       .     S
C421  H430   0.92956       .     S
H431  C422   0.93057       .     S
C422  H431   0.93057       .     S
H424  C423   0.96041       .     S
C423  H424   0.96041       .     S
H425  C423   0.96051       .     S
C423  H425   0.96051       .     S
H426  C423   0.95931       .     S
C423  H426   0.95931       .     S
