data_I
_chemical_name_common  '/data/user2/wty/HOF/MOFDiff/mofdiff/data/test/13-2d2_nmp'
_cell_length_a 11.87280
_cell_length_b 17.56950
_cell_length_c 24.67960
_cell_angle_alpha 104.81500
_cell_angle_beta  90.80130
_cell_angle_gamma 97.88870
_space_group_name_H-M_alt      'P 1'


loop_
_space_group_symop_operation_xyz
  'x, y, z' 

loop_
_atom_site_label
_atom_site_fract_x
_atom_site_fract_y
_atom_site_fract_z
_atom_site_type_symbol
Cl0    0.41063  0.45244  0.77854    Cl
Cl1    0.52572  0.57471  0.88885    Cl
Cl2     0.7934  0.71837   0.7601    Cl
C3      0.5223   0.5243   0.7753     C
C4      0.5713   0.5798   0.8244     C
C5      0.6567   0.6396   0.8198     C
C6      0.6916   0.6416   0.7668     C
C7      0.6473   0.5857    0.719     C
C8        0.56   0.5265   0.7231     C
H9     0.68986  0.67754  0.85158     H
H10    0.67535  0.58749  0.68426     H
H11    0.52748  0.48881  0.69114     H
O12     0.9094   0.9703  0.05453     O
N13     0.8498   0.8496   0.9912     N
C14     0.8698   0.8957   0.0444     C
C15     0.8399   0.8578    0.089     C
C16     0.7789   0.7731   0.0521     C
C17     0.8153   0.7698   0.9932     C
C18     0.8848   0.8757   0.9441     C
H19    0.87798  0.73928   0.9847     H
H20    0.75254  0.74491  0.96616     H
H21    0.96628  0.88118  0.94328     H
H22    0.86043  0.92622  0.94612     H
H23    0.85159  0.83761  0.91061     H
H24    0.78829   0.8857  0.11419     H
H25    0.90674  0.85305  0.11028     H
H26    0.80379   0.7302  0.06519     H
H27     0.6968  0.76919  0.05367     H
Cl28   0.25371  0.10839  0.37956    Cl
Cl29    0.0772  0.95178  0.34221    Cl
Cl30   0.15918  0.93862  0.12574    Cl
C31     0.2232   0.0621   0.3089     C
C32     0.1452   0.9931   0.2928     C
C33     0.1268   0.9537   0.2352     C
C34     0.1784   0.9858   0.1962     C
C35     0.2546   0.0585   0.2128     C
C36     0.2767   0.0966     0.27     C
H37    0.07892  0.90532   0.2241     H
H38    0.28975  0.08062  0.18584     H
H39    0.32624  0.14424  0.28144     H
Cl40    0.4269   0.6952   0.3409    Cl
Cl41    0.4723     0.75   0.3741    Cl
Cl42    0.6691   0.7765  0.18396    Cl
C43     0.6968   0.8795   0.2946     C
C44     0.6425   0.8076   0.2543     C
C45     0.5629   0.7565   0.2723     C
C46     0.5316   0.7684   0.3255     C
C47     0.5842   0.8343   0.3659     C
C48      0.665   0.8882   0.3523     C
H49    0.52868  0.71086  0.24611     H
H50    0.70039  0.93126  0.38037     H
Cl51    0.7909   0.9523   0.2876    Cl
Cl52    0.7994   0.9282   0.2392    Cl
O53     0.2687  0.01707   0.4899     O
O54     0.3464  0.91995  0.43022     O
O55     0.9884   0.7538  0.16342     O
O56     0.9764   0.6206  0.13951     O
O57     0.9325   0.0483   0.1556     O
O58     0.7558   0.0765   0.1581     O
O59     0.5211   0.0266  0.43777     O
O60     0.4393  0.12929  0.48804     O
O61     0.0779   0.6194  0.04585     O
O62     0.0487   0.7456   0.0612     O
O63     0.6529   0.9674  0.07023     O
O64     0.7032   0.0525   0.0175     O
C65     0.5801   0.6935  0.58675     C
C66     0.6257   0.6892  0.54318     C
C67     0.6831   0.6866  0.49216     C
C68     0.7864    0.733   0.4919     C
C69     0.8422   0.7337  0.44222     C
C70     0.7913   0.6848  0.39121     C
C71     0.6877   0.6367  0.39101     C
C72     0.6311   0.6366  0.44043     C
C73     0.5248   0.5871  0.43971     C
C74     0.4336   0.5475  0.43993     C
C75     0.3298   0.5029  0.44136     C
C76       0.24   0.4628  0.44267     C
C77     0.1342   0.4131  0.44306     C
C78     0.0881   0.3568  0.39418     C
C79     0.9864    0.306  0.39348     C
C80     0.9267  0.31261  0.44354     C
C81      0.972   0.3701  0.49206     C
C82     0.0748   0.4197  0.49339     C
C83     0.1244   0.4708  0.54435     C
C84     0.1732   0.5113  0.58826     C
C85     0.2292   0.5549  0.63696     C
C86     0.2767   0.5927  0.68049     C
C87     0.3284   0.6444  0.73164     C
C88     0.2808   0.6443  0.78351     C
C89     0.3252   0.6989  0.83308     C
C90     0.4227    0.754  0.83213     C
C91     0.4719   0.7525  0.78095     C
C92     0.4266   0.6996  0.73028     C
C93     0.4819   0.7005  0.67944     C
C94     0.5268   0.6978  0.63599     C
C95     0.9526   0.7868  0.44717     C
C96     0.0478   0.7606  0.41852     C
C97       0.15   0.8119  0.42286     C
C98     0.1575     0.89  0.45664     C
C99     0.0648   0.9153  0.48624     C
C100    0.9627    0.865   0.4819     C
C101     0.262   0.9483  0.46059     C
C102    0.8407   0.6852  0.33581     C
C103    0.8489   0.6132  0.29677     C
C104    0.8923    0.613  0.24401     C
C105    0.9225   0.6849  0.23025     C
C106    0.9118   0.7562  0.26851     C
C107    0.8709   0.7568  0.32119     C
C108    0.9649   0.6848  0.17405     C
C109    0.9481   0.2465  0.33965     C
C110     0.838   0.2398  0.31556     C
C111     0.808    0.186  0.26376     C
C112    0.8841   0.1393  0.23556     C
C113    0.9912   0.1454  0.25966     C
C114    0.0249   0.1998  0.31135     C
C115    0.8535   0.0856   0.1786     C
C116    0.8207   0.2584  0.44699     C
C117    0.7288   0.2889  0.47586     C
C118    0.6313   0.2377  0.48124     C
C119    0.6249   0.1563  0.45639     C
C120    0.7156   0.1268  0.42821     C
C121    0.8152   0.1768  0.42357     C
C122     0.524   0.0986  0.46047     C
C123    0.2628   0.6962  0.88467     C
C124    0.2314   0.7662  0.91956     C
C125    0.1732   0.7617  0.96753     C
C126     0.146   0.6885  0.98033     C
C127    0.1742   0.6201  0.94537     C
C128    0.2325   0.6234  0.89758     C
C129    0.0864   0.6871   0.0327     C
C130    0.4804   0.8122  0.88301     C
C131    0.4994    0.792  0.93319     C
C132    0.5548    0.849  0.97895     C
C133    0.5949   0.9254   0.9751     C
C134    0.5779   0.9463   0.9252     C
C135    0.5169   0.8905  0.88009     C
C136    0.6566   0.9884   0.0226     C
H137   0.40123  0.95516  0.43436     H
H138   0.00883  0.74776  0.13118     H
H139   0.82031  0.76496  0.52578     H
H140   0.91418  0.02725  0.12243     H
H141   0.65511  0.60381  0.35715     H
H142   0.38765  0.09347  0.48873     H
H143   0.04143  0.62203  0.07407     H
H144   0.68376  0.00453  0.09566     H
H145   0.12634  0.35299  0.36118     H
H146   0.93195  0.37548  0.52463     H
H147   0.21811  0.60679  0.78472     H
H148    0.5374  0.78799  0.78041     H
H149   0.04236  0.70856   0.3965     H
H150   0.21239  0.79455  0.40362     H
H151   0.07146  0.96686  0.50927     H
H152   0.90122  0.88259   0.5018     H
H153   0.82569  0.56536  0.30568     H
H154   0.90072  0.56526  0.21853     H
H155   0.93208  0.80397  0.25895     H
H156   0.86373  0.80483  0.34666     H
H157   0.78583  0.27099  0.33406     H
H158   0.73522  0.18148  0.24776     H
H159   0.04197   0.1129  0.24132     H
H160   0.09835  0.20454  0.32664     H
H161   0.73289  0.34336  0.49145     H
H162   0.57117  0.25762  0.50119     H
H163   0.71033   0.0724  0.41193     H
H164   0.87659  0.15607  0.40527     H
H165   0.24939  0.81462  0.91072     H
H166   0.15233  0.80748  0.99105     H
H167   0.15411  0.57152  0.95382     H
H168   0.25147  0.57697  0.87403     H
H169   0.47508  0.74062    0.936     H
H170   0.56518  0.83581  0.01266     H
H171    0.6068  0.99681  0.92193     H
H172    0.5001  0.90542  0.84767     H
Cl173   0.5507  0.06365  0.30382    Cl
Cl174    0.566   0.0542   0.2686    Cl
Cl175   0.2478  0.79849  0.26557    Cl
Cl176   0.4082   0.8174   0.0972    Cl
C177     0.369    0.839   0.1872     C
C178    0.3509   0.8584   0.2433     C
C179     0.412   0.9285   0.2787     C
C180    0.4842    0.976   0.2567     C
C181    0.5085   0.9548   0.1995     C
C182    0.4536   0.8865   0.1667     C
H183   0.40187  0.94148  0.31708     H
Cl184   0.3065   0.7565   0.1382    Cl
Cl185   0.2651   0.7286   0.1789    Cl
loop_
_geom_bond_atom_site_label_1
_geom_bond_atom_site_label_2
_geom_bond_distance
_geom_bond_site_symmetry_2
_ccdc_geom_bond_type
H137  O59    1.74937   1_565     S
O59   H137   1.74936   1_545     S
H138  O62    1.78958       .     S
O62   H138   1.78958       .     S
H140  O12    1.71371   1_545     S
O12   H140   1.71371   1_565     S
H142  O53    1.81596       .     S
O53   H142   1.81596       .     S
H143  O56    1.80427   1_455     S
O56   H143   1.80427   1_655     S
H144  O58    1.83709       .     S
O58   H144   1.83709       .     S
Cl0   C3     1.71853       .     S
C3    Cl0    1.71853       .     S
Cl1   C4     1.70716       .     S
C4    Cl1    1.70716       .     S
Cl2   C6     1.72616       .     S
C6    Cl2    1.72616       .     S
C3    C4     1.40640       .     S
C4    C3     1.40640       .     S
C3    C8     1.37780       .     S
C8    C3     1.37780       .     S
C4    C5     1.38442       .     S
C5    C4     1.38442       .     S
C5    C6     1.38510       .     S
C6    C5     1.38510       .     S
C5    H9     0.93084       .     S
H9    C5     0.93084       .     S
C6    C7     1.37158       .     S
C7    C6     1.37158       .     S
C7    C8     1.38825       .     S
C8    C7     1.38825       .     S
C7    H10    0.93053       .     S
H10   C7     0.93053       .     S
C8    H11    0.92947       .     S
H11   C8     0.92947       .     S
O12   C14    1.28897       .     S
C14   O12    1.28897       .     S
N13   C14    1.35311   1_556     S
C14   N13    1.35311   1_554     S
N13   C17    1.41925       .     S
C17   N13    1.41925       .     S
N13   C18    1.40284       .     S
C18   N13    1.40284       .     S
C14   C15    1.44978       .     S
C15   C14    1.44978       .     S
C15   C16    1.60033       .     S
C16   C15    1.60033       .     S
C15   H24    0.96928       .     S
H24   C15    0.96928       .     S
C15   H25    0.97030       .     S
H25   C15    0.97030       .     S
C16   C17    1.51146   1_554     S
C17   C16    1.51146   1_556     S
C16   H26    0.97098       .     S
H26   C16    0.97098       .     S
C16   H27    0.96975       .     S
H27   C16    0.96975       .     S
C17   H19    0.97043       .     S
H19   C17    0.97043       .     S
C17   H20    0.96913       .     S
H20   C17    0.96913       .     S
C18   H21    0.95995       .     S
H21   C18    0.95995       .     S
C18   H22    0.96038       .     S
H22   C18    0.96038       .     S
C18   H23    0.96023       .     S
H23   C18    0.96023       .     S
Cl28  C31    1.73490       .     S
C31   Cl28   1.73490       .     S
Cl29  C32    1.72777       .     S
C32   Cl29   1.72777       .     S
Cl30  C34    1.72130       .     S
C34   Cl30   1.72130       .     S
C31   C32    1.38577   1_545     S
C32   C31    1.38577   1_565     S
C31   C36    1.37896       .     S
C36   C31    1.37896       .     S
C32   C33    1.41219       .     S
C33   C32    1.41219       .     S
C33   C34    1.34873       .     S
C34   C33    1.34873       .     S
C33   H37    0.92986       .     S
H37   C33    0.92986       .     S
C34   C35    1.42220   1_565     S
C35   C34    1.42220   1_545     S
C35   C36    1.40283       .     S
C36   C35    1.40283       .     S
C35   H38    0.92919       .     S
H38   C35    0.92919       .     S
C36   H39    0.93039       .     S
H39   C36    0.93039       .     S
Cl40  Cl41   1.15354       .     S
Cl41  Cl40   1.15354       .     S
Cl40  C46    1.77991       .     S
C46   Cl40   1.77991       .     S
Cl41  C46    1.48266       .     S
C46   Cl41   1.48266       .     S
Cl41  C47    1.90273       .     S
C47   Cl41   1.90273       .     S
Cl42  C44    1.72901       .     S
C44   Cl42   1.72901       .     S
C43   C44    1.45486       .     S
C44   C43    1.45486       .     S
C43   C48    1.45372       .     S
C48   C43    1.45372       .     S
C43   Cl51   1.62486       .     S
Cl51  C43    1.62486       .     S
C44   C45    1.37089       .     S
C45   C44    1.37089       .     S
C45   C46    1.34174       .     S
C46   C45    1.34174       .     S
C45   H49    0.92953       .     S
H49   C45    0.92953       .     S
C46   C47    1.38508       .     S
C47   C46    1.38508       .     S
C47   C48    1.36086       .     S
C48   C47    1.36086       .     S
C48   H50    0.93027       .     S
H50   C48    0.93027       .     S
Cl51  Cl52   1.17164       .     S
Cl52  Cl51   1.17164       .     S
O53   C101   1.23065   1_545     S
C101  O53    1.23065   1_565     S
O54   C101   1.33458       .     S
C101  O54    1.33458       .     S
O54   H137   0.81987       .     S
H137  O54    0.81987       .     S
O55   C108   1.29930       .     S
C108  O55    1.29930       .     S
O55   H138   0.82004   1_655     S
H138  O55    0.82004   1_455     S
O56   C108   1.25355       .     S
C108  O56    1.25355       .     S
O57   C115   1.27468       .     S
C115  O57    1.27468       .     S
O57   H140   0.81996       .     S
H140  O57    0.81996       .     S
O58   C115   1.23222       .     S
C115  O58    1.23222       .     S
O59   C122   1.24111       .     S
C122  O59    1.24111       .     S
O60   C122   1.32112       .     S
C122  O60    1.32112       .     S
O60   H142   0.81991       .     S
H142  O60    0.81991       .     S
O61   C129   1.30219       .     S
C129  O61    1.30219       .     S
O61   H143   0.81985       .     S
H143  O61    0.81985       .     S
O62   C129   1.23161       .     S
C129  O62    1.23161       .     S
O63   C136   1.31857       .     S
C136  O63    1.31857       .     S
O63   H144   0.81993   1_565     S
H144  O63    0.81993   1_545     S
O64   C136   1.22217   1_545     S
C136  O64    1.22217   1_565     S
C65   C66    1.20043       .     S
C66   C65    1.20043       .     S
C65   C94    1.36771       .     S
C94   C65    1.36771       .     S
C66   C67    1.43357       .     S
C67   C66    1.43357       .     S
C67   C68    1.37742       .     S
C68   C67    1.37742       .     S
C67   C72    1.42770       .     S
C72   C67    1.42770       .     S
C68   C69    1.40376       .     S
C69   C68    1.40376       .     S
C68   H139   0.93003       .     S
H139  C68    0.93003       .     S
C69   C70    1.40402       .     S
C70   C69    1.40402       .     S
C69   C95    1.48491       .     S
C95   C69    1.48491       .     S
C70   C71    1.39267       .     S
C71   C70    1.39267       .     S
C70   C102   1.49654       .     S
C102  C70    1.49654       .     S
C71   C72    1.40102       .     S
C72   C71    1.40102       .     S
C71   H141   0.92983       .     S
H141  C71    0.92983       .     S
C72   C73    1.42818       .     S
C73   C72    1.42818       .     S
C73   C74    1.20493       .     S
C74   C73    1.20493       .     S
C74   C75    1.37272       .     S
C75   C74    1.37272       .     S
C75   C76    1.20024       .     S
C76   C75    1.20024       .     S
C76   C77    1.42969       .     S
C77   C76    1.42969       .     S
C77   C78    1.39856       .     S
C78   C77    1.39856       .     S
C77   C82    1.42372       .     S
C82   C77    1.42372       .     S
C78   C79    1.39663   1_455     S
C79   C78    1.39663   1_655     S
C78   H145   0.92990       .     S
H145  C78    0.92990       .     S
C79   C80    1.41985       .     S
C80   C79    1.41985       .     S
C79   C109   1.48557       .     S
C109  C79    1.48557       .     S
C80   C81    1.39919       .     S
C81   C80    1.39919       .     S
C80   C116   1.48785       .     S
C116  C80    1.48785       .     S
C81   C82    1.39372   1_655     S
C82   C81    1.39372   1_455     S
C81   H146   0.93023       .     S
H146  C81    0.93023       .     S
C82   C83    1.41113       .     S
C83   C82    1.41113       .     S
C83   C84    1.22119       .     S
C84   C83    1.22119       .     S
C84   C85    1.35662       .     S
C85   C84    1.35662       .     S
C85   C86    1.19525       .     S
C86   C85    1.19525       .     S
C86   C87    1.42629       .     S
C87   C86    1.42629       .     S
C87   C88    1.40686       .     S
C88   C87    1.40686       .     S
C87   C92    1.41718       .     S
C92   C87    1.41718       .     S
C88   C89    1.39203       .     S
C89   C88    1.39203       .     S
C88   H147   0.93019       .     S
H147  C88    0.93019       .     S
C89   C90    1.40802       .     S
C90   C89    1.40802       .     S
C89   C123   1.48991       .     S
C123  C89    1.48991       .     S
C90   C91    1.39470       .     S
C91   C90    1.39470       .     S
C90   C130   1.48953       .     S
C130  C90    1.48953       .     S
C91   C92    1.40231       .     S
C92   C91    1.40231       .     S
C91   H148   0.93015       .     S
H148  C91    0.93015       .     S
C92   C93    1.42687       .     S
C93   C92    1.42687       .     S
C93   C94    1.19718       .     S
C94   C93    1.19718       .     S
C95   C96    1.41001   1_655     S
C96   C95    1.41001   1_455     S
C95   C100   1.40940       .     S
C100  C95    1.40940       .     S
C96   C97    1.39390       .     S
C97   C96    1.39390       .     S
C96   H149   0.92962       .     S
H149  C96    0.92962       .     S
C97   C98    1.40185       .     S
C98   C97    1.40185       .     S
C97   H150   0.92999       .     S
H150  C97    0.92999       .     S
C98   C99    1.39043       .     S
C99   C98    1.39043       .     S
C98   C101   1.48147       .     S
C101  C98    1.48147       .     S
C99   C100   1.38414   1_455     S
C100  C99    1.38414   1_655     S
C99   H151   0.93043       .     S
H151  C99    0.93043       .     S
C100  H152   0.92944       .     S
H152  C100   0.92944       .     S
C102  C103   1.39684       .     S
C103  C102   1.39684       .     S
C102  C107   1.39756       .     S
C107  C102   1.39756       .     S
C103  C104   1.40638       .     S
C104  C103   1.40638       .     S
C103  H153   0.92920       .     S
H153  C103   0.92920       .     S
C104  C105   1.39217       .     S
C105  C104   1.39217       .     S
C104  H154   0.92952       .     S
H154  C104   0.92952       .     S
C105  C106   1.38533       .     S
C106  C105   1.38533       .     S
C105  C108   1.48179       .     S
C108  C105   1.48179       .     S
C106  C107   1.39222       .     S
C107  C106   1.39222       .     S
C106  H155   0.93029       .     S
H155  C106   0.93029       .     S
C107  H156   0.92974       .     S
H156  C107   0.92974       .     S
C109  C110   1.40582       .     S
C110  C109   1.40582       .     S
C109  C114   1.38657   1_655     S
C114  C109   1.38657   1_455     S
C110  C111   1.38980       .     S
C111  C110   1.38980       .     S
C110  H157   0.93035       .     S
H157  C110   0.93035       .     S
C111  C112   1.37949       .     S
C112  C111   1.37949       .     S
C111  H158   0.92978       .     S
H158  C111   0.92978       .     S
C112  C113   1.37513       .     S
C113  C112   1.37513       .     S
C112  C115   1.48716       .     S
C115  C112   1.48716       .     S
C113  C114   1.39936   1_655     S
C114  C113   1.39936   1_455     S
C113  H159   0.92963   1_655     S
H159  C113   0.92963   1_455     S
C114  H160   0.92984       .     S
H160  C114   0.92984       .     S
C116  C117   1.40439       .     S
C117  C116   1.40439       .     S
C116  C121   1.39400       .     S
C121  C116   1.39400       .     S
C117  C118   1.39514       .     S
C118  C117   1.39514       .     S
C117  H161   0.92972       .     S
H161  C117   0.92972       .     S
C118  C119   1.39555       .     S
C119  C118   1.39555       .     S
C118  H162   0.92998       .     S
H162  C118   0.92998       .     S
C119  C120   1.37904       .     S
C120  C119   1.37904       .     S
C119  C122   1.48161       .     S
C122  C119   1.48161       .     S
C120  C121   1.39760       .     S
C121  C120   1.39760       .     S
C120  H163   0.93025       .     S
H163  C120   0.93025       .     S
C121  H164   0.93050       .     S
H164  C121   0.93050       .     S
C123  C124   1.40935       .     S
C124  C123   1.40935       .     S
C123  C128   1.39722       .     S
C128  C123   1.39722       .     S
C124  C125   1.39322       .     S
C125  C124   1.39322       .     S
C124  H165   0.92913       .     S
H165  C124   0.92913       .     S
C125  C126   1.39811       .     S
C126  C125   1.39811       .     S
C125  H166   0.93019       .     S
H166  C125   0.93019       .     S
C126  C127   1.37441       .     S
C127  C126   1.37441       .     S
C126  C129   1.48623   1_556     S
C129  C126   1.48623   1_554     S
C127  C128   1.38576       .     S
C128  C127   1.38576       .     S
C127  H167   0.93028       .     S
H167  C127   0.93028       .     S
C128  H168   0.93038       .     S
H168  C128   0.93038       .     S
C130  C131   1.39623       .     S
C131  C130   1.39623       .     S
C130  C135   1.40479       .     S
C135  C130   1.40479       .     S
C131  C132   1.38960       .     S
C132  C131   1.38960       .     S
C131  H169   0.92958       .     S
H169  C131   0.92958       .     S
C132  C133   1.38873       .     S
C133  C132   1.38873       .     S
C132  H170   0.92984   1_556     S
H170  C132   0.92984   1_554     S
C133  C134   1.39171       .     S
C134  C133   1.39171       .     S
C133  C136   1.49194   1_556     S
C136  C133   1.49194   1_554     S
C134  C135   1.39624       .     S
C135  C134   1.39624       .     S
C134  H171   0.93038       .     S
H171  C134   0.93038       .     S
C135  H172   0.93050       .     S
H172  C135   0.93050       .     S
Cl173 Cl174  0.86890       .     S
Cl174 Cl173  0.86890       .     S
Cl173 C180   1.75270   1_545     S
C180  Cl173  1.75270   1_565     S
Cl174 C180   1.52858   1_545     S
C180  Cl174  1.52858   1_565     S
Cl175 C178   1.69393       .     S
C178  Cl175  1.69393       .     S
Cl175 Cl185  2.20535       .     S
Cl185 Cl175  2.20535       .     S
Cl176 C182   1.85367       .     S
C182  Cl176  1.85367       .     S
Cl176 Cl184  1.96466       .     S
Cl184 Cl176  1.96466       .     S
C177  C178   1.36615       .     S
C178  C177   1.36615       .     S
C177  C182   1.40049       .     S
C182  C177   1.40049       .     S
C177  Cl184  1.70214       .     S
Cl184 C177   1.70214       .     S
C178  C179   1.41180       .     S
C179  C178   1.41180       .     S
C179  C180   1.33209       .     S
C180  C179   1.33209       .     S
C179  H183   0.92947       .     S
H183  C179   0.92947       .     S
C180  C181   1.40953       .     S
C181  C180   1.40953       .     S
C181  C182   1.33937       .     S
C182  C181   1.33937       .     S
Cl184 Cl185  1.30012       .     S
Cl185 Cl184  1.30012       .     S
O59   H137   1.74936   1_545     S
H137  O59    1.74937   1_565     S
O62   H138   1.78958       .     S
H138  O62    1.78958       .     S
O12   H140   1.71371   1_565     S
H140  O12    1.71371   1_545     S
O53   H142   1.81596       .     S
H142  O53    1.81596       .     S
O56   H143   1.80427   1_655     S
H143  O56    1.80427   1_455     S
O58   H144   1.83709       .     S
H144  O58    1.83709       .     S
C3    Cl0    1.71853       .     S
Cl0   C3     1.71853       .     S
C4    Cl1    1.70716       .     S
Cl1   C4     1.70716       .     S
C6    Cl2    1.72616       .     S
Cl2   C6     1.72616       .     S
C4    C3     1.40640       .     S
C3    C4     1.40640       .     S
C8    C3     1.37780       .     S
C3    C8     1.37780       .     S
C5    C4     1.38442       .     S
C4    C5     1.38442       .     S
C6    C5     1.38510       .     S
C5    C6     1.38510       .     S
H9    C5     0.93084       .     S
C5    H9     0.93084       .     S
C7    C6     1.37158       .     S
C6    C7     1.37158       .     S
C8    C7     1.38825       .     S
C7    C8     1.38825       .     S
H10   C7     0.93053       .     S
C7    H10    0.93053       .     S
H11   C8     0.92947       .     S
C8    H11    0.92947       .     S
C14   O12    1.28897       .     S
O12   C14    1.28897       .     S
C14   N13    1.35311   1_554     S
N13   C14    1.35311   1_556     S
C17   N13    1.41925       .     S
N13   C17    1.41925       .     S
C18   N13    1.40284       .     S
N13   C18    1.40284       .     S
C15   C14    1.44978       .     S
C14   C15    1.44978       .     S
C16   C15    1.60033       .     S
C15   C16    1.60033       .     S
H24   C15    0.96928       .     S
C15   H24    0.96928       .     S
H25   C15    0.97030       .     S
C15   H25    0.97030       .     S
C17   C16    1.51146   1_556     S
C16   C17    1.51146   1_554     S
H26   C16    0.97098       .     S
C16   H26    0.97098       .     S
H27   C16    0.96975       .     S
C16   H27    0.96975       .     S
H19   C17    0.97043       .     S
C17   H19    0.97043       .     S
H20   C17    0.96913       .     S
C17   H20    0.96913       .     S
H21   C18    0.95995       .     S
C18   H21    0.95995       .     S
H22   C18    0.96038       .     S
C18   H22    0.96038       .     S
H23   C18    0.96023       .     S
C18   H23    0.96023       .     S
C31   Cl28   1.73490       .     S
Cl28  C31    1.73490       .     S
C32   Cl29   1.72777       .     S
Cl29  C32    1.72777       .     S
C34   Cl30   1.72130       .     S
Cl30  C34    1.72130       .     S
C32   C31    1.38577   1_565     S
C31   C32    1.38577   1_545     S
C36   C31    1.37896       .     S
C31   C36    1.37896       .     S
C33   C32    1.41219       .     S
C32   C33    1.41219       .     S
C34   C33    1.34873       .     S
C33   C34    1.34873       .     S
H37   C33    0.92986       .     S
C33   H37    0.92986       .     S
C35   C34    1.42220   1_545     S
C34   C35    1.42220   1_565     S
C36   C35    1.40283       .     S
C35   C36    1.40283       .     S
H38   C35    0.92919       .     S
C35   H38    0.92919       .     S
H39   C36    0.93039       .     S
C36   H39    0.93039       .     S
Cl41  Cl40   1.15354       .     S
Cl40  Cl41   1.15354       .     S
C46   Cl40   1.77991       .     S
Cl40  C46    1.77991       .     S
C46   Cl41   1.48266       .     S
Cl41  C46    1.48266       .     S
C47   Cl41   1.90273       .     S
Cl41  C47    1.90273       .     S
C44   Cl42   1.72901       .     S
Cl42  C44    1.72901       .     S
C44   C43    1.45486       .     S
C43   C44    1.45486       .     S
C48   C43    1.45372       .     S
C43   C48    1.45372       .     S
Cl51  C43    1.62486       .     S
C43   Cl51   1.62486       .     S
C45   C44    1.37089       .     S
C44   C45    1.37089       .     S
C46   C45    1.34174       .     S
C45   C46    1.34174       .     S
H49   C45    0.92953       .     S
C45   H49    0.92953       .     S
C47   C46    1.38508       .     S
C46   C47    1.38508       .     S
C48   C47    1.36086       .     S
C47   C48    1.36086       .     S
H50   C48    0.93027       .     S
C48   H50    0.93027       .     S
Cl52  Cl51   1.17164       .     S
Cl51  Cl52   1.17164       .     S
C101  O53    1.23065   1_565     S
O53   C101   1.23065   1_545     S
C101  O54    1.33458       .     S
O54   C101   1.33458       .     S
H137  O54    0.81987       .     S
O54   H137   0.81987       .     S
C108  O55    1.29930       .     S
O55   C108   1.29930       .     S
H138  O55    0.82004   1_455     S
O55   H138   0.82004   1_655     S
C108  O56    1.25355       .     S
O56   C108   1.25355       .     S
C115  O57    1.27468       .     S
O57   C115   1.27468       .     S
H140  O57    0.81996       .     S
O57   H140   0.81996       .     S
C115  O58    1.23222       .     S
O58   C115   1.23222       .     S
C122  O59    1.24111       .     S
O59   C122   1.24111       .     S
C122  O60    1.32112       .     S
O60   C122   1.32112       .     S
H142  O60    0.81991       .     S
O60   H142   0.81991       .     S
C129  O61    1.30219       .     S
O61   C129   1.30219       .     S
H143  O61    0.81985       .     S
O61   H143   0.81985       .     S
C129  O62    1.23161       .     S
O62   C129   1.23161       .     S
C136  O63    1.31857       .     S
O63   C136   1.31857       .     S
H144  O63    0.81993   1_545     S
O63   H144   0.81993   1_565     S
C136  O64    1.22217   1_565     S
O64   C136   1.22217   1_545     S
C66   C65    1.20043       .     S
C65   C66    1.20043       .     S
C94   C65    1.36771       .     S
C65   C94    1.36771       .     S
C67   C66    1.43357       .     S
C66   C67    1.43357       .     S
C68   C67    1.37742       .     S
C67   C68    1.37742       .     S
C72   C67    1.42770       .     S
C67   C72    1.42770       .     S
C69   C68    1.40376       .     S
C68   C69    1.40376       .     S
H139  C68    0.93003       .     S
C68   H139   0.93003       .     S
C70   C69    1.40402       .     S
C69   C70    1.40402       .     S
C95   C69    1.48491       .     S
C69   C95    1.48491       .     S
C71   C70    1.39267       .     S
C70   C71    1.39267       .     S
C102  C70    1.49654       .     S
C70   C102   1.49654       .     S
C72   C71    1.40102       .     S
C71   C72    1.40102       .     S
H141  C71    0.92983       .     S
C71   H141   0.92983       .     S
C73   C72    1.42818       .     S
C72   C73    1.42818       .     S
C74   C73    1.20493       .     S
C73   C74    1.20493       .     S
C75   C74    1.37272       .     S
C74   C75    1.37272       .     S
C76   C75    1.20024       .     S
C75   C76    1.20024       .     S
C77   C76    1.42969       .     S
C76   C77    1.42969       .     S
C78   C77    1.39856       .     S
C77   C78    1.39856       .     S
C82   C77    1.42372       .     S
C77   C82    1.42372       .     S
C79   C78    1.39663   1_655     S
C78   C79    1.39663   1_455     S
H145  C78    0.92990       .     S
C78   H145   0.92990       .     S
C80   C79    1.41985       .     S
C79   C80    1.41985       .     S
C109  C79    1.48557       .     S
C79   C109   1.48557       .     S
C81   C80    1.39919       .     S
C80   C81    1.39919       .     S
C116  C80    1.48785       .     S
C80   C116   1.48785       .     S
C82   C81    1.39372   1_455     S
C81   C82    1.39372   1_655     S
H146  C81    0.93023       .     S
C81   H146   0.93023       .     S
C83   C82    1.41113       .     S
C82   C83    1.41113       .     S
C84   C83    1.22119       .     S
C83   C84    1.22119       .     S
C85   C84    1.35662       .     S
C84   C85    1.35662       .     S
C86   C85    1.19525       .     S
C85   C86    1.19525       .     S
C87   C86    1.42629       .     S
C86   C87    1.42629       .     S
C88   C87    1.40686       .     S
C87   C88    1.40686       .     S
C92   C87    1.41718       .     S
C87   C92    1.41718       .     S
C89   C88    1.39203       .     S
C88   C89    1.39203       .     S
H147  C88    0.93019       .     S
C88   H147   0.93019       .     S
C90   C89    1.40802       .     S
C89   C90    1.40802       .     S
C123  C89    1.48991       .     S
C89   C123   1.48991       .     S
C91   C90    1.39470       .     S
C90   C91    1.39470       .     S
C130  C90    1.48953       .     S
C90   C130   1.48953       .     S
C92   C91    1.40231       .     S
C91   C92    1.40231       .     S
H148  C91    0.93015       .     S
C91   H148   0.93015       .     S
C93   C92    1.42687       .     S
C92   C93    1.42687       .     S
C94   C93    1.19718       .     S
C93   C94    1.19718       .     S
C96   C95    1.41001   1_455     S
C95   C96    1.41001   1_655     S
C100  C95    1.40940       .     S
C95   C100   1.40940       .     S
C97   C96    1.39390       .     S
C96   C97    1.39390       .     S
H149  C96    0.92962       .     S
C96   H149   0.92962       .     S
C98   C97    1.40185       .     S
C97   C98    1.40185       .     S
H150  C97    0.92999       .     S
C97   H150   0.92999       .     S
C99   C98    1.39043       .     S
C98   C99    1.39043       .     S
C101  C98    1.48147       .     S
C98   C101   1.48147       .     S
C100  C99    1.38414   1_655     S
C99   C100   1.38414   1_455     S
H151  C99    0.93043       .     S
C99   H151   0.93043       .     S
H152  C100   0.92944       .     S
C100  H152   0.92944       .     S
C103  C102   1.39684       .     S
C102  C103   1.39684       .     S
C107  C102   1.39756       .     S
C102  C107   1.39756       .     S
C104  C103   1.40638       .     S
C103  C104   1.40638       .     S
H153  C103   0.92920       .     S
C103  H153   0.92920       .     S
C105  C104   1.39217       .     S
C104  C105   1.39217       .     S
H154  C104   0.92952       .     S
C104  H154   0.92952       .     S
C106  C105   1.38533       .     S
C105  C106   1.38533       .     S
C108  C105   1.48179       .     S
C105  C108   1.48179       .     S
C107  C106   1.39222       .     S
C106  C107   1.39222       .     S
H155  C106   0.93029       .     S
C106  H155   0.93029       .     S
H156  C107   0.92974       .     S
C107  H156   0.92974       .     S
C110  C109   1.40582       .     S
C109  C110   1.40582       .     S
C114  C109   1.38657   1_455     S
C109  C114   1.38657   1_655     S
C111  C110   1.38980       .     S
C110  C111   1.38980       .     S
H157  C110   0.93035       .     S
C110  H157   0.93035       .     S
C112  C111   1.37949       .     S
C111  C112   1.37949       .     S
H158  C111   0.92978       .     S
C111  H158   0.92978       .     S
C113  C112   1.37513       .     S
C112  C113   1.37513       .     S
C115  C112   1.48716       .     S
C112  C115   1.48716       .     S
C114  C113   1.39936   1_455     S
C113  C114   1.39936   1_655     S
H159  C113   0.92963   1_455     S
C113  H159   0.92963   1_655     S
H160  C114   0.92984       .     S
C114  H160   0.92984       .     S
C117  C116   1.40439       .     S
C116  C117   1.40439       .     S
C121  C116   1.39400       .     S
C116  C121   1.39400       .     S
C118  C117   1.39514       .     S
C117  C118   1.39514       .     S
H161  C117   0.92972       .     S
C117  H161   0.92972       .     S
C119  C118   1.39555       .     S
C118  C119   1.39555       .     S
H162  C118   0.92998       .     S
C118  H162   0.92998       .     S
C120  C119   1.37904       .     S
C119  C120   1.37904       .     S
C122  C119   1.48161       .     S
C119  C122   1.48161       .     S
C121  C120   1.39760       .     S
C120  C121   1.39760       .     S
H163  C120   0.93025       .     S
C120  H163   0.93025       .     S
H164  C121   0.93050       .     S
C121  H164   0.93050       .     S
C124  C123   1.40935       .     S
C123  C124   1.40935       .     S
C128  C123   1.39722       .     S
C123  C128   1.39722       .     S
C125  C124   1.39322       .     S
C124  C125   1.39322       .     S
H165  C124   0.92913       .     S
C124  H165   0.92913       .     S
C126  C125   1.39811       .     S
C125  C126   1.39811       .     S
H166  C125   0.93019       .     S
C125  H166   0.93019       .     S
C127  C126   1.37441       .     S
C126  C127   1.37441       .     S
C129  C126   1.48623   1_554     S
C126  C129   1.48623   1_556     S
C128  C127   1.38576       .     S
C127  C128   1.38576       .     S
H167  C127   0.93028       .     S
C127  H167   0.93028       .     S
H168  C128   0.93038       .     S
C128  H168   0.93038       .     S
C131  C130   1.39623       .     S
C130  C131   1.39623       .     S
C135  C130   1.40479       .     S
C130  C135   1.40479       .     S
C132  C131   1.38960       .     S
C131  C132   1.38960       .     S
H169  C131   0.92958       .     S
C131  H169   0.92958       .     S
C133  C132   1.38873       .     S
C132  C133   1.38873       .     S
H170  C132   0.92984   1_554     S
C132  H170   0.92984   1_556     S
C134  C133   1.39171       .     S
C133  C134   1.39171       .     S
C136  C133   1.49194   1_554     S
C133  C136   1.49194   1_556     S
C135  C134   1.39624       .     S
C134  C135   1.39624       .     S
H171  C134   0.93038       .     S
C134  H171   0.93038       .     S
H172  C135   0.93050       .     S
C135  H172   0.93050       .     S
Cl174 Cl173  0.86890       .     S
Cl173 Cl174  0.86890       .     S
C180  Cl173  1.75270   1_565     S
Cl173 C180   1.75270   1_545     S
C180  Cl174  1.52858   1_565     S
Cl174 C180   1.52858   1_545     S
C178  Cl175  1.69393       .     S
Cl175 C178   1.69393       .     S
Cl185 Cl175  2.20535       .     S
Cl175 Cl185  2.20535       .     S
C182  Cl176  1.85367       .     S
Cl176 C182   1.85367       .     S
Cl184 Cl176  1.96466       .     S
Cl176 Cl184  1.96466       .     S
C178  C177   1.36615       .     S
C177  C178   1.36615       .     S
C182  C177   1.40049       .     S
C177  C182   1.40049       .     S
Cl184 C177   1.70214       .     S
C177  Cl184  1.70214       .     S
C179  C178   1.41180       .     S
C178  C179   1.41180       .     S
C180  C179   1.33209       .     S
C179  C180   1.33209       .     S
H183  C179   0.92947       .     S
C179  H183   0.92947       .     S
C181  C180   1.40953       .     S
C180  C181   1.40953       .     S
C182  C181   1.33937       .     S
C181  C182   1.33937       .     S
Cl185 Cl184  1.30012       .     S
Cl184 Cl185  1.30012       .     S
