data_I
_chemical_name_common  '/data/user2/wty/HOF/MOFDiff/mofdiff/data/test/1881ct-18c6-'
_cell_length_a 13.66330
_cell_length_b  8.26010
_cell_length_c 26.87890
_cell_angle_alpha 90.00000
_cell_angle_beta  90.20800
_cell_angle_gamma 90.00000
_space_group_name_H-M_alt      'P 1'


loop_
_space_group_symop_operation_xyz
  'x, y, z' 

loop_
_atom_site_label
_atom_site_fract_x
_atom_site_fract_y
_atom_site_fract_z
_atom_site_type_symbol
O0     0.18817  0.96331  0.60555     O
H1     0.23192  0.93038  0.62568     H
H2       0.193    0.899   0.5786     H
O3     0.26883  0.54501  0.62803     O
H4     0.26017  0.48763  0.60212     H
H5     0.21789  0.60124  0.63348     H
O6      0.1945   0.2748  0.56784     O
O7      0.2698   0.2654   0.5834     O
O8     0.23117  0.04501  0.87197     O
H9     0.23983  0.98763  0.89788     H
H10    0.28211  0.10124  0.86652     H
O11     0.6945   0.2252  0.06784     O
O12     0.7698   0.2346   0.0834     O
O13    0.31183  0.46331  0.89445     O
H14    0.26808  0.43038  0.87432     H
H15      0.307    0.399   0.9214     H
O16     0.3055   0.7748  0.93216     O
O17     0.2302   0.7654   0.9166     O
O18    0.68817  0.53669  0.10555     O
H19    0.73192  0.56962  0.12568     H
H20      0.693    0.601   0.0786     H
O21      0.749   0.6909  0.52252     O
H22    0.76647  0.70082  0.49313     H
O23     0.5975    0.699   0.4917     O
C24     0.6518  0.66341   0.5241     C
C25     0.6785   0.6994   0.5395     C
O26     0.6371   0.6648   0.4962     O
O27     0.7447   0.7937   0.5459     O
H28      0.681    0.694    0.476     H
O29    0.31455  0.26198  0.78209     O
O30    0.15014   0.3999  0.83146     O
O31     0.4354    0.088  0.83187     O
O32    0.00536   0.0019  0.62973     O
H33    0.06387  0.98191  0.62425     H
O34    0.12497  0.32431  0.93369     O
O35    0.06719   0.1442  0.69233     O
O36    0.30336   0.3242  0.98873     O
O37    0.45203   0.1534  0.93758     O
C38    0.40778   0.2563  0.76317     C
C39    0.47378   0.1635  0.79088     C
C40    0.43818  0.33241  0.72047     C
H41    0.39322  0.39487  0.70217     H
C42    0.53485   0.3188  0.70359     C
C43    0.60036   0.2241   0.7306     C
C44     0.5662   0.4132  0.65868     C
C45    0.70253   0.1914  0.71387     C
C46    0.89442   0.1241  0.68433     C
C47    0.99812   0.0922  0.66995     C
C48    0.56927   0.1495  0.77463     C
H49    0.61424  0.08876  0.79348     H
C50    0.72063  0.10941  0.66979     C
H51    0.66775  0.07715  0.64963     H
C52    0.14822  0.34011  0.78193     C
H53    0.09748  0.39673  0.76284     H
H54    0.13208  0.22446  0.78223     H
C55    0.81544   0.0741  0.65498     C
H56    0.82648  0.01671  0.62531     H
C57    0.24562   0.3644  0.75758     C
H58    0.24153  0.33665  0.72219     H
H59    0.26588  0.47788   0.7605     H
C60    0.78168   0.2395  0.74277     C
H61    0.77073  0.29511  0.77276     H
C62    0.51199   0.4171  0.61632     C
H63    0.45333  0.35783  0.61467     H
C64    0.87655   0.2067    0.728     C
H65    0.92933  0.24105  0.74789     H
C66     0.6286   0.5931  0.57666     C
C67    0.65328   0.5016  0.66021     C
H68    0.69173  0.50096  0.68928     H
C69     0.5418  0.50771  0.57493     C
H70     0.5027  0.51035  0.54609     H
C71    0.49994  0.01021  0.86664     C
H72    0.55675  0.96728  0.84881     H
H73    0.46587  0.91888  0.88212     H
C74    0.05653   0.3795  0.85425     C
H75    0.03647  0.26578  0.85212     H
H76    0.00761  0.44524  0.83676     H
C77     0.6835   0.5899  0.61939     C
H78    0.74238  0.64859  0.62098     H
C79     0.0624   0.4301   0.9074     C
H80    0.08741  0.54101  0.90961     H
H81    0.99691  0.42779  0.92218     H
C82     0.5337  0.12251  0.90574     C
H83    0.58758  0.07397  0.92475     H
H84      0.557  0.22369  0.89085     H
C85     0.2123  0.27511  0.00855     C
H86    0.21179   0.2935  0.04457     H
H87     0.2026  0.15919  0.00257     H
C88     0.1318   0.3683  0.98481     C
H89    0.06985  0.34479  0.00158     H
H90    0.14483  0.48457  0.98777     H
C91     0.3855  0.24821  0.01198     C
H92    0.36932  0.13533  0.01968     H
H93    0.40067  0.30363  0.04329     H
C94     0.4736   0.2533  0.97837     C
H95    0.48599  0.36438  0.96726     H
H96    0.53171  0.21363    0.996     H
O97     0.8055   0.7252  0.43216     O
O98     0.7302   0.7346   0.4166     O
O99     0.8629   0.1648   0.0038     O
H100     0.819    0.194    0.024     H
C101    0.8215   0.1994   0.9605     C
O102    0.7553   0.2937   0.9541     O
O103   0.18545  0.76198  0.71791     O
O104   0.34986   0.8999  0.66854     O
O105    0.0646    0.588  0.66813     O
O106   0.49464   0.5019  0.87027     O
H107   0.43614  0.48191  0.87575     H
O108   0.37503  0.82431  0.56631     O
O109   0.43281   0.6442  0.80767     O
O110   0.19664   0.8242  0.51127     O
O111   0.04797   0.6534  0.56242     O
C112   0.09222   0.7563  0.73683     C
C113   0.02622   0.6635  0.70912     C
C114   0.06182   0.8324  0.77953     C
H115   0.10678  0.89487  0.79783     H
C116   0.96515   0.8188  0.79641     C
C117   0.89964   0.7241   0.7694     C
C118    0.9338   0.9132  0.84132     C
C119   0.79747   0.6914  0.78613     C
C120   0.60558   0.6241  0.81567     C
C121   0.50188   0.5922  0.83005     C
C122   0.93073   0.6495  0.72537     C
H123   0.88576  0.58876  0.70652     H
C124   0.77937  0.60941  0.83021     C
H125   0.83225  0.57715  0.85037     H
C126   0.35178   0.8401  0.71807     C
H127   0.40253  0.89673  0.73716     H
H128   0.36792  0.72447  0.71777     H
C129   0.68456   0.5741  0.84502     C
H130   0.67352  0.51671  0.87469     H
C131   0.25438   0.8644  0.74242     C
H132   0.25847  0.83666  0.77781     H
H133   0.23412  0.97788   0.7395     H
C134   0.71832   0.7395  0.75723     C
H135   0.72927   0.7951  0.72724     H
C136   0.98801   0.9171  0.88368     C
H137   0.04667  0.85783  0.88533     H
C138   0.62345  0.70671    0.772     C
H139   0.57067  0.74105  0.75211     H
C140    0.8714   0.0931  0.92334     C
C141   0.84672   0.0016  0.83979     C
H142   0.80827  0.00096  0.81072     H
C143    0.9582  0.00771  0.92507     C
H144    0.9973  0.01034  0.95391     H
C145     6e-05  0.51021  0.63336     C
H146   0.94325  0.46728   0.6512     H
H147   0.03413  0.41887  0.61788     H
C148   0.44347   0.8795  0.64575     C
H149   0.46353  0.76578  0.64788     H
H150   0.49239  0.94524  0.66325     H
C151    0.8165   0.0899  0.88061     C
H152   0.75762  0.14859  0.87902     H
C153    0.4376   0.9301   0.5926     C
H154   0.41259  0.04101  0.59039     H
H155   0.50309  0.92779  0.57782     H
C156    0.9663   0.6225  0.59426     C
H157   0.91242  0.57397  0.57525     H
H158     0.943  0.72369  0.60915     H
C159    0.2877  0.77511  0.49145     C
H160   0.28821  0.79349  0.45543     H
H161    0.2974  0.65919  0.49743     H
C162    0.3682   0.8683  0.51519     C
H163   0.43015  0.84479  0.49842     H
H164   0.35517  0.98457  0.51223     H
C165    0.1145  0.74821  0.48802     C
H166   0.13068  0.63533  0.48032     H
H167   0.09934  0.80363  0.45671     H
C168    0.0264   0.7533  0.52163     C
H169   0.01401  0.86438  0.53274     H
H170   0.96829  0.71363    0.504     H
O171     0.751   0.1909  0.97748     O
H172   0.73353  0.20081  0.00687     H
O173    0.9025    0.199   0.0083     O
C174    0.8482  0.16341   0.9759     C
C175    0.1785   0.8006   0.0395     C
O176    0.2447  0.70631   0.0459     O
O177    0.1371   0.8352   0.9962     O
H178     0.181    0.806    0.976     H
O179   0.81455  0.23802  0.28209     O
O180   0.65014   0.1001  0.33146     O
O181    0.9354    0.412  0.33187     O
O182   0.50536   0.4981  0.12973     O
H183   0.56387  0.51809  0.12425     H
O184   0.62497  0.17569  0.43369     O
O185   0.56719   0.3558  0.19233     O
O186   0.80336   0.1758  0.48873     O
O187   0.95203   0.3466  0.43758     O
C188   0.90778   0.2437  0.26317     C
C189   0.97378   0.3365  0.29088     C
C190   0.93818  0.16759  0.22047     C
H191   0.89322  0.10513  0.20217     H
C192   0.03485   0.1812  0.20359     C
C193   0.10036   0.2759   0.2306     C
C194    0.0662   0.0868  0.15868     C
C195   0.20253   0.3086  0.21387     C
C196   0.39442   0.3759  0.18433     C
C197   0.49812   0.4078  0.16995     C
C198   0.06927   0.3505  0.27463     C
H199   0.11424  0.41124  0.29348     H
C200   0.22063   0.3906  0.16979     C
H201   0.16775  0.42285  0.14963     H
C202   0.64822   0.1599  0.28193     C
H203   0.59747  0.10327  0.26284     H
H204   0.63208  0.27553  0.28223     H
C205   0.31544   0.4259  0.15498     C
H206   0.32648  0.48329  0.12531     H
C207   0.74562   0.1356  0.25758     C
H208   0.74153  0.16334  0.22219     H
H209   0.76588  0.02212   0.2605     H
C210   0.28168   0.2605  0.24277     C
H211   0.27073  0.20489  0.27276     H
C212   0.01199   0.0829  0.11632     C
H213   0.95333  0.14217  0.11467     H
C214   0.37655  0.29329    0.228     C
H215   0.42933  0.25895  0.24789     H
C216    0.1286   0.9069  0.07666     C
C217   0.15328   0.9984  0.16021     C
H218   0.19173  0.99904  0.18928     H
C219    0.0418  0.99229  0.07493     C
H220    0.0027  0.98966  0.04609     H
C221   0.99994  0.48979  0.36664     C
H222   0.05675  0.53272  0.34881     H
H223   0.96587  0.58113  0.38212     H
C224   0.55653   0.1205  0.35425     C
H225   0.53647  0.23422  0.35212     H
H226   0.50761  0.05476  0.33676     H
C227    0.1835   0.9101  0.11939     C
H228   0.24238  0.85141  0.12098     H
C229    0.5624   0.0699   0.4074     C
H230   0.58741  0.95899  0.40961     H
H231   0.49691  0.07221  0.42218     H
C232    0.0337   0.3775  0.40574     C
H233   0.08758  0.42603  0.42475     H
H234     0.057  0.27631  0.39085     H
C235    0.7123  0.22489  0.50855     C
H236   0.71179   0.2065  0.54457     H
H237    0.7026  0.34081  0.50257     H
C238    0.6318   0.1317  0.48481     C
H239   0.56985  0.15521  0.50158     H
H240   0.64483  0.01543  0.48777     H
C241    0.8855  0.25179  0.51198     C
H242   0.86932  0.36468  0.51968     H
H243   0.90067  0.19637  0.54329     H
C244    0.9736   0.2467  0.47837     C
H245   0.98599  0.13562  0.46726     H
H246   0.03171  0.28637    0.496     H
O247     0.249   0.8091  0.02252     O
H248   0.26647  0.79919  0.99313     H
O249    0.0975    0.801   0.9917     O
C250    0.1518  0.83659   0.0241     C
O251   0.73117  0.45499  0.37197     O
H252   0.73983  0.51237  0.39788     H
H253   0.78211  0.39876  0.36652     H
O254   0.76883  0.95499  0.12803     O
H255   0.76017  0.01237  0.10212     H
H256   0.71789  0.89876  0.13348     H
O257   0.81183  0.03669  0.39445     O
H258   0.76808  0.06962  0.37432     H
H259     0.807    0.101   0.4214     H
O260     0.251   0.3091  0.47748     O
H261   0.23353  0.29918  0.50687     H
O262    0.4025    0.301   0.5083     O
C263    0.3482  0.33659   0.4759     C
C264    0.3215   0.3006   0.4605     C
O265    0.3629   0.3352   0.5038     O
O266    0.2553   0.2063   0.4541     O
O267   0.68545  0.73802  0.21791     O
O268   0.84986   0.6001  0.16854     O
O269    0.5646    0.912  0.16813     O
O270   0.99464   0.9981  0.37027     O
H271   0.93613  0.01809  0.37575     H
O272   0.87503  0.67569  0.06631     O
O273   0.93281   0.8558  0.30767     O
O274   0.69664   0.6758  0.01127     O
O275   0.54797   0.8466  0.06242     O
C276   0.59222   0.7437  0.23683     C
C277   0.52622   0.8365  0.20912     C
C278   0.56182   0.6676  0.27953     C
H279   0.60678  0.60513  0.29783     H
C280   0.46515   0.6812  0.29641     C
C281   0.39964   0.7759   0.2694     C
C282    0.4338   0.5868  0.34132     C
C283   0.29747   0.8086  0.28613     C
C284   0.10558   0.8759  0.31567     C
C285   0.00188   0.9078  0.33005     C
C286   0.43073   0.8505  0.22537     C
H287   0.38576  0.91124  0.20652     H
C288   0.27937   0.8906  0.33021     C
H289   0.33225  0.92285  0.35037     H
C290   0.85178   0.6599  0.21807     C
H291   0.90253  0.60327  0.23716     H
H292   0.86792  0.77553  0.21777     H
C293   0.18456   0.9259  0.34502     C
H294   0.17352  0.98329  0.37469     H
C295   0.75438   0.6356  0.24242     C
H296   0.75847  0.66334  0.27781     H
H297   0.73412  0.52212   0.2395     H
C298   0.21832   0.7605  0.25723     C
H299   0.22927   0.7049  0.22724     H
C300   0.48801   0.5829  0.38368     C
H301   0.54667  0.64217  0.38533     H
C302   0.12345   0.7933    0.272     C
H303   0.07067  0.75895  0.25211     H
C304    0.3714   0.4069  0.42334     C
C305   0.34672   0.4984  0.33979     C
H306   0.30827  0.49904  0.31072     H
C307    0.4582  0.49229  0.42507     C
H308    0.4973  0.48966  0.45391     H
C309   0.50006  0.98979  0.13336     C
H310   0.44325  0.03272   0.1512     H
H311   0.53413  0.08112  0.11788     H
C312   0.94347   0.6205  0.14575     C
H313   0.96353  0.73422  0.14788     H
H314   0.99239  0.55476  0.16325     H
C315    0.3165   0.4101  0.38061     C
H316   0.25762  0.35141  0.37902     H
C317    0.9376   0.5699   0.0926     C
H318   0.91259  0.45899  0.09039     H
H319   0.00309  0.57221  0.07782     H
C320    0.4663   0.8775  0.09426     C
H321   0.41242  0.92603  0.07525     H
H322     0.443  0.77631  0.10915     H
C323    0.7877  0.72489  0.99145     C
H324   0.78821  0.70651  0.95543     H
H325    0.7974  0.84081  0.99743     H
C326    0.8682   0.6317  0.01519     C
H327   0.93015  0.65521  0.99842     H
H328   0.85517  0.51543  0.01223     H
C329    0.6145  0.75179  0.98802     C
H330   0.63068  0.86467  0.98032     H
H331   0.59933  0.69637  0.95671     H
C332    0.5264   0.7467  0.02163     C
H333   0.51401  0.63562  0.03274     H
H334   0.46829  0.78637    0.004     H
H335     0.319    0.306    0.524     H
loop_
_geom_bond_atom_site_label_1
_geom_bond_atom_site_label_2
_geom_bond_distance
_geom_bond_site_symmetry_2
_ccdc_geom_bond_type
H1    O104   1.99345       .     S
O104  H1     1.99345       .     S
H2    O108   2.58487       .     S
O108  H2     2.58487       .     S
H2    O110   1.91314       .     S
O110  H2     1.91314       .     S
H4    O6     2.17684       .     S
O6    H4     2.17684       .     S
H4    O7     1.90802       .     S
O7    H4     1.90802       .     S
H5    O105   2.29788       .     S
O105  H5     2.29788       .     S
H9    O16    2.17684       .     S
O16   H9     2.17684       .     S
H9    O17    1.90802       .     S
O17   H9     1.90802       .     S
H10   O31    2.29788       .     S
O31   H10    2.29788       .     S
H14   O30    1.99345       .     S
O30   H14    1.99345       .     S
H15   O34    2.58487       .     S
O34   H15    2.58487       .     S
H15   O36    1.91314       .     S
O36   H15    1.91314       .     S
H19   O268   1.99345       .     S
O268  H19    1.99345       .     S
H20   O272   2.58487       .     S
O272  H20    2.58487       .     S
H20   O274   1.91314       .     S
O274  H20    1.91314       .     S
H22   O97    1.73694       .     S
O97   H22    1.73694       .     S
H22   O98    2.13248       .     S
O98   H22    2.13248       .     S
H28   O21    1.55531       .     S
O21   H28    1.55531       .     S
H28   O97    2.08883       .     S
O97   H28    2.08883       .     S
H28   O98    1.76672       .     S
O98   H28    1.76672       .     S
H33   O0     1.77956       .     S
O0    H33    1.77956       .     S
H100  O11    2.08883       .     S
O11   H100   2.08883       .     S
H100  O12    1.76672       .     S
O12   H100   1.76672       .     S
H107  O13    1.77969       .     S
O13   H107   1.77969       .     S
H172  O11    1.73695       .     S
O11   H172   1.73695       .     S
H172  O12    2.13249       .     S
O12   H172   2.13249       .     S
H178  O16    2.08883       .     S
O16   H178   2.08883       .     S
H178  O17    1.76672       .     S
O17   H178   1.76672       .     S
H183  O18    1.77956       .     S
O18   H183   1.77956       .     S
H248  O16    1.73695       .     S
O16   H248   1.73695       .     S
H248  O17    2.13249       .     S
O17   H248   2.13249       .     S
H252  O97    2.17684       .     S
O97   H252   2.17684       .     S
H252  O98    1.90803       .     S
O98   H252   1.90803       .     S
H253  O181   2.29788       .     S
O181  H253   2.29788       .     S
H255  O11    2.17684       .     S
O11   H255   2.17684       .     S
H255  O12    1.90802       .     S
O12   H255   1.90802       .     S
H256  O269   2.29788       .     S
O269  H256   2.29788       .     S
H258  O180   1.99345       .     S
O180  H258   1.99345       .     S
H259  O184   2.58486       .     S
O184  H259   2.58486       .     S
H259  O186   1.91314       .     S
O186  H259   1.91314       .     S
H261  O6     1.73694       .     S
O6    H261   1.73694       .     S
H261  O7     2.13248       .     S
O7    H261   2.13248       .     S
H271  O257   1.77956       .     S
O257  H271   1.77956       .     S
H335  O6     2.08883       .     S
O6    H335   2.08883       .     S
H335  O7     1.76672       .     S
O7    H335   1.76672       .     S
H335  O260   1.55531       .     S
O260  H335   1.55531       .     S
O0    H1     0.84955       .     S
H1    O0     0.84955       .     S
O0    H2     0.90090       .     S
H2    O0     0.90090       .     S
O3    H4     0.85033       .     S
H4    O3     0.85033       .     S
O3    H5     0.84991       .     S
H5    O3     0.84991       .     S
O6    O7     1.11191       .     S
O7    O6     1.11191       .     S
O8    H9     0.85033   1_545     S
H9    O8     0.85033   1_565     S
O8    H10    0.84992       .     S
H10   O8     0.84992       .     S
O11   O12    1.11191       .     S
O12   O11    1.11191       .     S
O13   H14    0.84955       .     S
H14   O13    0.84955       .     S
O13   H15    0.90090       .     S
H15   O13    0.90090       .     S
O16   O17    1.11191       .     S
O17   O16    1.11191       .     S
O18   H19    0.84954       .     S
H19   O18    0.84954       .     S
O18   H20    0.90090       .     S
H20   O18    0.90090       .     S
O21   H22    0.83013       .     S
H22   O21    0.83013       .     S
O21   C24    1.34817       .     S
C24   O21    1.34817       .     S
O21   C25    1.06972       .     S
C25   O21    1.06972       .     S
O21   O27    1.05815       .     S
O27   O21    1.05815       .     S
O23   C24    1.17924       .     S
C24   O23    1.17924       .     S
O23   O26    0.62186       .     S
O26   O23    0.62186       .     S
C24   C25    0.62587       .     S
C25   C24    0.62587       .     S
C24   O26    0.77573       .     S
O26   C24    0.77573       .     S
C24   C66    1.56106       .     S
C66   C24    1.56106       .     S
C25   O26    1.32342       .     S
O26   C25    1.32342       .     S
C25   O27    1.20554       .     S
O27   C25    1.20554       .     S
C25   C66    1.49613       .     S
C66   C25    1.49613       .     S
O26   H28    0.84565       .     S
H28   O26    0.84565       .     S
O29   C38    1.37411       .     S
C38   O29    1.37411       .     S
O29   C57    1.42557       .     S
C57   O29    1.42557       .     S
O30   C52    1.42012       .     S
C52   O30    1.42012       .     S
O30   C74    1.43011       .     S
C74   O30    1.43011       .     S
O31   C39    1.37186       .     S
C39   O31    1.37186       .     S
O31   C71    1.43456       .     S
C71   O31    1.43456       .     S
O32   H33    0.83001   1_545     S
H33   O32    0.83001   1_565     S
O32   C47    1.31743   1_455     S
C47   O32    1.31743   1_655     S
O34   C79    1.41047       .     S
C79   O34    1.41047       .     S
O34   C88    1.42401       .     S
C88   O34    1.42401       .     S
O35   C47    1.19701   1_455     S
C47   O35    1.19701   1_655     S
O36   C85    1.41458   1_556     S
C85   O36    1.41458   1_554     S
O36   C91    1.42794   1_556     S
C91   O36    1.42794   1_554     S
O37   C82    1.43166       .     S
C82   O37    1.43166       .     S
O37   C94    1.40268       .     S
C94   O37    1.40268       .     S
C38   C39    1.39666       .     S
C39   C38    1.39666       .     S
C38   C40    1.37423       .     S
C40   C38    1.37423       .     S
C39   C48    1.38223       .     S
C48   C39    1.38223       .     S
C40   H41    0.93984       .     S
H41   C40    0.93984       .     S
C40   C42    1.40266       .     S
C42   C40    1.40266       .     S
C42   C43    1.39119       .     S
C43   C42    1.39119       .     S
C42   C44    1.50080       .     S
C44   C42    1.50080       .     S
C43   C45    1.49281       .     S
C45   C43    1.49281       .     S
C43   C48    1.40158       .     S
C48   C43    1.40158       .     S
C44   C62    1.35644       .     S
C62   C44    1.35644       .     S
C44   C67    1.39648       .     S
C67   C44    1.39648       .     S
C45   C50    1.38771       .     S
C50   C45    1.38771       .     S
C45   C60    1.38734       .     S
C60   C45    1.38734       .     S
C46   C47    1.49344       .     S
C47   C46    1.49344       .     S
C46   C55    1.39688       .     S
C55   C46    1.39688       .     S
C46   C64    1.38022       .     S
C64   C46    1.38022       .     S
C48   H49    0.94006       .     S
H49   C48    0.94006       .     S
C50   H51    0.94012       .     S
H51   C50    0.94012       .     S
C50   C55    1.38758       .     S
C55   C50    1.38758       .     S
C52   H53    0.97983       .     S
H53   C52    0.97983       .     S
C52   H54    0.98044       .     S
H54   C52    0.98044       .     S
C52   C57    1.49866       .     S
C57   C52    1.49866       .     S
C55   H56    0.94040       .     S
H56   C55    0.94040       .     S
C57   H58    0.97987       .     S
H58   C57    0.97987       .     S
C57   H59    0.98044       .     S
H59   C57    0.98044       .     S
C60   H61    0.94024       .     S
H61   C60    0.94024       .     S
C60   C64    1.38383       .     S
C64   C60    1.38383       .     S
C62   H63    0.94009       .     S
H63   C62    0.94009       .     S
C62   C69    1.40252       .     S
C69   C62    1.40252       .     S
C64   H65    0.93999       .     S
H65   C64    0.93999       .     S
C66   C69    1.38050       .     S
C69   C66    1.38050       .     S
C66   C77    1.36976       .     S
C77   C66    1.36976       .     S
C67   H68    0.93999       .     S
H68   C67    0.93999       .     S
C67   C77    1.38188       .     S
C77   C67    1.38188       .     S
C69   H70    0.94010       .     S
H70   C69    0.94010       .     S
C71   H72    0.98012   1_545     S
H72   C71    0.98012   1_565     S
C71   H73    0.97997   1_545     S
H73   C71    0.97997   1_565     S
C71   C82    1.47453       .     S
C82   C71    1.47453       .     S
C74   H75    0.98012       .     S
H75   C74    0.98012       .     S
C74   H76    0.97998       .     S
H76   C74    0.97998       .     S
C74   C79    1.49038       .     S
C79   C74    1.49038       .     S
C77   H78    0.94011       .     S
H78   C77    0.94011       .     S
C79   H80    0.97951       .     S
H80   C79    0.97951       .     S
C79   H81    0.98054   1_455     S
H81   C79    0.98054   1_655     S
C82   H83    0.98034       .     S
H83   C82    0.98034       .     S
C82   H84    0.98028       .     S
H84   C82    0.98028       .     S
C85   H86    0.98007       .     S
H86   C85    0.98007       .     S
C85   H87    0.97983       .     S
H87   C85    0.97983       .     S
C85   C88    1.48472   1_554     S
C88   C85    1.48472   1_556     S
C88   H89    0.97986   1_556     S
H89   C88    0.97986   1_554     S
C88   H90    0.97995       .     S
H90   C88    0.97995       .     S
C91   H92    0.98052       .     S
H92   C91    0.98052       .     S
C91   H93    0.97954       .     S
H93   C91    0.97954       .     S
C91   C94    1.50824   1_554     S
C94   C91    1.50824   1_556     S
C94   H95    0.97983       .     S
H95   C94    0.97983       .     S
C94   H96    0.97959       .     S
H96   C94    0.97959       .     S
O97   O98    1.11191       .     S
O98   O97    1.11191       .     S
O99   H100   0.84565       .     S
H100  O99    0.84565       .     S
O99   C101   1.32342   1_554     S
C101  O99    1.32342   1_556     S
O99   O173   0.62186       .     S
O173  O99    0.62186       .     S
O99   C174   0.77573   1_554     S
C174  O99    0.77573   1_556     S
C101  O102   1.20554       .     S
O102  C101   1.20554       .     S
C101  C140   1.49613       .     S
C140  C101   1.49613       .     S
C101  O171   1.06972       .     S
O171  C101   1.06972       .     S
C101  C174   0.62587       .     S
C174  C101   0.62587       .     S
O102  O171   1.05815       .     S
O171  O102   1.05815       .     S
O103  C112   1.37411       .     S
C112  O103   1.37411       .     S
O103  C131   1.42557       .     S
C131  O103   1.42557       .     S
O104  C126   1.42015       .     S
C126  O104   1.42015       .     S
O104  C148   1.43011       .     S
C148  O104   1.43011       .     S
O105  C113   1.37186       .     S
C113  O105   1.37186       .     S
O105  C145   1.43456       .     S
C145  O105   1.43456       .     S
O106  H107   0.82988       .     S
H107  O106   0.82988       .     S
O106  C121   1.31743       .     S
C121  O106   1.31743       .     S
O108  C153   1.41047       .     S
C153  O108   1.41047       .     S
O108  C162   1.42402       .     S
C162  O108   1.42402       .     S
O109  C121   1.19702       .     S
C121  O109   1.19702       .     S
O110  C159   1.41458       .     S
C159  O110   1.41458       .     S
O110  C165   1.42794       .     S
C165  O110   1.42794       .     S
O111  C156   1.43168   1_455     S
C156  O111   1.43168   1_655     S
O111  C168   1.40268       .     S
C168  O111   1.40268       .     S
C112  C113   1.39666       .     S
C113  C112   1.39666       .     S
C112  C114   1.37419       .     S
C114  C112   1.37419       .     S
C113  C122   1.38223   1_455     S
C122  C113   1.38223   1_655     S
C114  H115   0.93989       .     S
H115  C114   0.93989       .     S
C114  C116   1.40265   1_455     S
C116  C114   1.40265   1_655     S
C116  C117   1.39119       .     S
C117  C116   1.39119       .     S
C116  C118   1.50081       .     S
C118  C116   1.50081       .     S
C117  C119   1.49281       .     S
C119  C117   1.49281       .     S
C117  C122   1.40158       .     S
C122  C117   1.40158       .     S
C118  C136   1.35644       .     S
C136  C118   1.35644       .     S
C118  C141   1.39648   1_565     S
C141  C118   1.39648   1_545     S
C119  C124   1.38771       .     S
C124  C119   1.38771       .     S
C119  C134   1.38734       .     S
C134  C119   1.38734       .     S
C120  C121   1.49344       .     S
C121  C120   1.49344       .     S
C120  C129   1.39688       .     S
C129  C120   1.39688       .     S
C120  C138   1.38026       .     S
C138  C120   1.38026       .     S
C122  H123   0.94006       .     S
H123  C122   0.94006       .     S
C124  H125   0.94012       .     S
H125  C124   0.94012       .     S
C124  C129   1.38758       .     S
C129  C124   1.38758       .     S
C126  H127   0.97997       .     S
H127  C126   0.97997       .     S
C126  H128   0.98028       .     S
H128  C126   0.98028       .     S
C126  C131   1.49868       .     S
C131  C126   1.49868       .     S
C129  H130   0.94040       .     S
H130  C129   0.94040       .     S
C131  H132   0.97985       .     S
H132  C131   0.97985       .     S
C131  H133   0.98044       .     S
H133  C131   0.98044       .     S
C134  H135   0.94020       .     S
H135  C134   0.94020       .     S
C134  C138   1.38381       .     S
C138  C134   1.38381       .     S
C136  H137   0.94010   1_655     S
H137  C136   0.94010   1_455     S
C136  C143   1.40252   1_565     S
C143  C136   1.40252   1_545     S
C138  H139   0.93997       .     S
H139  C138   0.93997       .     S
C140  C143   1.38050       .     S
C143  C140   1.38050       .     S
C140  C151   1.36976       .     S
C151  C140   1.36976       .     S
C140  C174   1.56106       .     S
C174  C140   1.56106       .     S
C141  H142   0.93999       .     S
H142  C141   0.93999       .     S
C141  C151   1.38188       .     S
C151  C141   1.38188       .     S
C143  H144   0.94010       .     S
H144  C143   0.94010       .     S
C145  H146   0.98025   1_455     S
H146  C145   0.98025   1_655     S
C145  H147   0.98003       .     S
H147  C145   0.98003       .     S
C145  C156   1.47448   1_455     S
C156  C145   1.47448   1_655     S
C148  H149   0.98012       .     S
H149  C148   0.98012       .     S
C148  H150   0.98011       .     S
H150  C148   0.98011       .     S
C148  C153   1.49038       .     S
C153  C148   1.49038       .     S
C151  H152   0.94011       .     S
H152  C151   0.94011       .     S
C153  H154   0.97951   1_565     S
H154  C153   0.97951   1_545     S
C153  H155   0.98054       .     S
H155  C153   0.98054       .     S
C156  H157   0.98031       .     S
H157  C156   0.98031       .     S
C156  H158   0.98035       .     S
H158  C156   0.98035       .     S
C159  H160   0.98006       .     S
H160  C159   0.98006       .     S
C159  H161   0.97983       .     S
H161  C159   0.97983       .     S
C159  C162   1.48472       .     S
C162  C159   1.48472       .     S
C162  H163   0.97986       .     S
H163  C162   0.97986       .     S
C162  H164   0.97995       .     S
H164  C162   0.97995       .     S
C165  H166   0.98052       .     S
H166  C165   0.98052       .     S
C165  H167   0.97952       .     S
H167  C165   0.97952       .     S
C165  C168   1.50824       .     S
C168  C165   1.50824       .     S
C168  H169   0.97983       .     S
H169  C168   0.97983       .     S
C168  H170   0.97959   1_455     S
H170  C168   0.97959   1_655     S
O171  H172   0.83012   1_556     S
H172  O171   0.83012   1_554     S
O171  C174   1.34817       .     S
C174  O171   1.34817       .     S
O173  C174   1.17924   1_554     S
C174  O173   1.17924   1_556     S
C175  O176   1.20549       .     S
O176  C175   1.20549       .     S
C175  O177   1.32342   1_554     S
O177  C175   1.32342   1_556     S
C175  C216   1.49613       .     S
C216  C175   1.49613       .     S
C175  O247   1.06972       .     S
O247  C175   1.06972       .     S
C175  C250   0.62587       .     S
C250  C175   0.62587       .     S
O176  O247   1.05808       .     S
O247  O176   1.05808       .     S
O177  H178   0.84565       .     S
H178  O177   0.84565       .     S
O177  O249   0.62186       .     S
O249  O177   0.62186       .     S
O177  C250   0.77573   1_556     S
C250  O177   0.77573   1_554     S
O179  C188   1.37411       .     S
C188  O179   1.37411       .     S
O179  C207   1.42557       .     S
C207  O179   1.42557       .     S
O180  C202   1.42015       .     S
C202  O180   1.42015       .     S
O180  C224   1.43011       .     S
C224  O180   1.43011       .     S
O181  C189   1.37186       .     S
C189  O181   1.37186       .     S
O181  C221   1.43456       .     S
C221  O181   1.43456       .     S
O182  H183   0.83001       .     S
H183  O182   0.83001       .     S
O182  C197   1.31743       .     S
C197  O182   1.31743       .     S
O184  C229   1.41047       .     S
C229  O184   1.41047       .     S
O184  C238   1.42401       .     S
C238  O184   1.42401       .     S
O185  C197   1.19702       .     S
C197  O185   1.19702       .     S
O186  C235   1.41458       .     S
C235  O186   1.41458       .     S
O186  C241   1.42794       .     S
C241  O186   1.42794       .     S
O187  C232   1.43168   1_655     S
C232  O187   1.43168   1_455     S
O187  C244   1.40268       .     S
C244  O187   1.40268       .     S
C188  C189   1.39666       .     S
C189  C188   1.39666       .     S
C188  C190   1.37423       .     S
C190  C188   1.37423       .     S
C189  C198   1.38223   1_655     S
C198  C189   1.38223   1_455     S
C190  H191   0.93984       .     S
H191  C190   0.93984       .     S
C190  C192   1.40265   1_655     S
C192  C190   1.40265   1_455     S
C192  C193   1.39119       .     S
C193  C192   1.39119       .     S
C192  C194   1.50080       .     S
C194  C192   1.50080       .     S
C193  C195   1.49281       .     S
C195  C193   1.49281       .     S
C193  C198   1.40158       .     S
C198  C193   1.40158       .     S
C194  C212   1.35644       .     S
C212  C194   1.35644       .     S
C194  C217   1.39647   1_545     S
C217  C194   1.39648   1_565     S
C195  C200   1.38776       .     S
C200  C195   1.38776       .     S
C195  C210   1.38734       .     S
C210  C195   1.38734       .     S
C196  C197   1.49344       .     S
C197  C196   1.49344       .     S
C196  C205   1.39688       .     S
C205  C196   1.39688       .     S
C196  C214   1.38026       .     S
C214  C196   1.38026       .     S
C198  H199   0.94006       .     S
H199  C198   0.94006       .     S
C200  H201   0.94010       .     S
H201  C200   0.94010       .     S
C200  C205   1.38756       .     S
C205  C200   1.38756       .     S
C202  H203   0.97997       .     S
H203  C202   0.97997       .     S
C202  H204   0.98028       .     S
H204  C202   0.98028       .     S
C202  C207   1.49868       .     S
C207  C202   1.49868       .     S
C205  H206   0.94040       .     S
H206  C205   0.94040       .     S
C207  H208   0.97985       .     S
H208  C207   0.97985       .     S
C207  H209   0.98044       .     S
H209  C207   0.98044       .     S
C210  H211   0.94024       .     S
H211  C210   0.94024       .     S
C210  C214   1.38381       .     S
C214  C210   1.38381       .     S
C212  H213   0.94009   1_455     S
H213  C212   0.94010   1_655     S
C212  C219   1.40252   1_545     S
C219  C212   1.40252   1_565     S
C214  H215   0.93997       .     S
H215  C214   0.93997       .     S
C216  C219   1.38050       .     S
C219  C216   1.38050       .     S
C216  C227   1.36976       .     S
C227  C216   1.36976       .     S
C216  C250   1.56106       .     S
C250  C216   1.56106       .     S
C217  H218   0.93999       .     S
H218  C217   0.93999       .     S
C217  C227   1.38188       .     S
C227  C217   1.38188       .     S
C219  H220   0.94010       .     S
H220  C219   0.94010       .     S
C221  H222   0.98012   1_655     S
H222  C221   0.98012   1_455     S
C221  H223   0.98003       .     S
H223  C221   0.98003       .     S
C221  C232   1.47448   1_655     S
C232  C221   1.47448   1_455     S
C224  H225   0.98012       .     S
H225  C224   0.98012       .     S
C224  H226   0.97998       .     S
H226  C224   0.97998       .     S
C224  C229   1.49038       .     S
C229  C224   1.49038       .     S
C227  H228   0.94011       .     S
H228  C227   0.94011       .     S
C229  H230   0.97951   1_545     S
H230  C229   0.97951   1_565     S
C229  H231   0.98054       .     S
H231  C229   0.98054       .     S
C232  H233   0.98031       .     S
H233  C232   0.98031       .     S
C232  H234   0.98035       .     S
H234  C232   0.98035       .     S
C235  H236   0.98007       .     S
H236  C235   0.98007       .     S
C235  H237   0.97983       .     S
H237  C235   0.97983       .     S
C235  C238   1.48472       .     S
C238  C235   1.48472       .     S
C238  H239   0.97986       .     S
H239  C238   0.97986       .     S
C238  H240   0.97995       .     S
H240  C238   0.97995       .     S
C241  H242   0.98059       .     S
H242  C241   0.98059       .     S
C241  H243   0.97954       .     S
H243  C241   0.97954       .     S
C241  C244   1.50824       .     S
C244  C241   1.50824       .     S
C244  H245   0.97983       .     S
H245  C244   0.97983       .     S
C244  H246   0.97959   1_655     S
H246  C244   0.97959   1_455     S
O247  H248   0.83012   1_554     S
H248  O247   0.83012   1_556     S
O247  C250   1.34817       .     S
C250  O247   1.34817       .     S
O249  C250   1.17924   1_556     S
C250  O249   1.17924   1_554     S
O251  H252   0.85033       .     S
H252  O251   0.85033       .     S
O251  H253   0.84991       .     S
H253  O251   0.84991       .     S
O254  H255   0.85033   1_565     S
H255  O254   0.85033   1_545     S
O254  H256   0.84991       .     S
H256  O254   0.84991       .     S
O257  H258   0.84954       .     S
H258  O257   0.84954       .     S
O257  H259   0.90090       .     S
H259  O257   0.90090       .     S
O260  H261   0.83013       .     S
H261  O260   0.83013       .     S
O260  C263   1.34817       .     S
C263  O260   1.34817       .     S
O260  C264   1.06972       .     S
C264  O260   1.06972       .     S
O260  O266   1.05815       .     S
O266  O260   1.05815       .     S
O262  C263   1.17924       .     S
C263  O262   1.17924       .     S
O262  O265   0.62186       .     S
O265  O262   0.62186       .     S
C263  C264   0.62587       .     S
C264  C263   0.62587       .     S
C263  O265   0.77573       .     S
O265  C263   0.77573       .     S
C263  C304   1.56106       .     S
C304  C263   1.56106       .     S
C264  O265   1.32342       .     S
O265  C264   1.32342       .     S
C264  O266   1.20554       .     S
O266  C264   1.20554       .     S
C264  C304   1.49613       .     S
C304  C264   1.49613       .     S
O265  H335   0.84565       .     S
H335  O265   0.84565       .     S
O267  C276   1.37411       .     S
C276  O267   1.37411       .     S
O267  C295   1.42557       .     S
C295  O267   1.42557       .     S
O268  C290   1.42015       .     S
C290  O268   1.42015       .     S
O268  C312   1.43011       .     S
C312  O268   1.43011       .     S
O269  C277   1.37186       .     S
C277  O269   1.37186       .     S
O269  C309   1.43456       .     S
C309  O269   1.43456       .     S
O270  H271   0.83001   1_565     S
H271  O270   0.83001   1_545     S
O270  C285   1.31743   1_655     S
C285  O270   1.31743   1_455     S
O272  C317   1.41047       .     S
C317  O272   1.41047       .     S
O272  C326   1.42402       .     S
C326  O272   1.42402       .     S
O273  C285   1.19702   1_655     S
C285  O273   1.19702   1_455     S
O274  C323   1.41458   1_554     S
C323  O274   1.41458   1_556     S
O274  C329   1.42794   1_554     S
C329  O274   1.42794   1_556     S
O275  C320   1.43168       .     S
C320  O275   1.43168       .     S
O275  C332   1.40268       .     S
C332  O275   1.40268       .     S
C276  C277   1.39666       .     S
C277  C276   1.39666       .     S
C276  C278   1.37419       .     S
C278  C276   1.37419       .     S
C277  C286   1.38223       .     S
C286  C277   1.38223       .     S
C278  H279   0.93989       .     S
H279  C278   0.93989       .     S
C278  C280   1.40265       .     S
C280  C278   1.40265       .     S
C280  C281   1.39119       .     S
C281  C280   1.39119       .     S
C280  C282   1.50081       .     S
C282  C280   1.50081       .     S
C281  C283   1.49281       .     S
C283  C281   1.49281       .     S
C281  C286   1.40158       .     S
C286  C281   1.40158       .     S
C282  C300   1.35644       .     S
C300  C282   1.35644       .     S
C282  C305   1.39647       .     S
C305  C282   1.39647       .     S
C283  C288   1.38776       .     S
C288  C283   1.38776       .     S
C283  C298   1.38734       .     S
C298  C283   1.38734       .     S
C284  C285   1.49344       .     S
C285  C284   1.49344       .     S
C284  C293   1.39688       .     S
C293  C284   1.39688       .     S
C284  C302   1.38022       .     S
C302  C284   1.38022       .     S
C286  H287   0.94006       .     S
H287  C286   0.94006       .     S
C288  H289   0.94010       .     S
H289  C288   0.94010       .     S
C288  C293   1.38756       .     S
C293  C288   1.38756       .     S
C290  H291   0.97997       .     S
H291  C290   0.97997       .     S
C290  H292   0.98028       .     S
H292  C290   0.98028       .     S
C290  C295   1.49868       .     S
C295  C290   1.49868       .     S
C293  H294   0.94040       .     S
H294  C293   0.94040       .     S
C295  H296   0.97985       .     S
H296  C295   0.97985       .     S
C295  H297   0.98044       .     S
H297  C295   0.98044       .     S
C298  H299   0.94020       .     S
H299  C298   0.94020       .     S
C298  C302   1.38383       .     S
C302  C298   1.38383       .     S
C300  H301   0.94010       .     S
H301  C300   0.94010       .     S
C300  C307   1.40252       .     S
C307  C300   1.40252       .     S
C302  H303   0.93999       .     S
H303  C302   0.93999       .     S
C304  C307   1.38050       .     S
C307  C304   1.38050       .     S
C304  C315   1.36976       .     S
C315  C304   1.36976       .     S
C305  H306   0.93999       .     S
H306  C305   0.93999       .     S
C305  C315   1.38188       .     S
C315  C305   1.38188       .     S
C307  H308   0.94010       .     S
H308  C307   0.94010       .     S
C309  H310   0.98025   1_565     S
H310  C309   0.98025   1_545     S
C309  H311   0.97997   1_565     S
H311  C309   0.97997   1_545     S
C309  C320   1.47448       .     S
C320  C309   1.47448       .     S
C312  H313   0.98012       .     S
H313  C312   0.98012       .     S
C312  H314   0.98011       .     S
H314  C312   0.98011       .     S
C312  C317   1.49038       .     S
C317  C312   1.49038       .     S
C315  H316   0.94011       .     S
H316  C315   0.94011       .     S
C317  H318   0.97951       .     S
H318  C317   0.97951       .     S
C317  H319   0.98054   1_655     S
H319  C317   0.98054   1_455     S
C320  H321   0.98031       .     S
H321  C320   0.98031       .     S
C320  H322   0.98035       .     S
H322  C320   0.98035       .     S
C323  H324   0.98006       .     S
H324  C323   0.98006       .     S
C323  H325   0.97983       .     S
H325  C323   0.97983       .     S
C323  C326   1.48472   1_556     S
C326  C323   1.48472   1_554     S
C326  H327   0.97986   1_554     S
H327  C326   0.97986   1_556     S
C326  H328   0.97995       .     S
H328  C326   0.97995       .     S
C329  H330   0.98052       .     S
H330  C329   0.98052       .     S
C329  H331   0.97954       .     S
H331  C329   0.97954       .     S
C329  C332   1.50824   1_556     S
C332  C329   1.50824   1_554     S
C332  H333   0.97983       .     S
H333  C332   0.97983       .     S
C332  H334   0.97959       .     S
H334  C332   0.97959       .     S
O104  H1     1.99345       .     S
H1    O104   1.99345       .     S
O108  H2     2.58487       .     S
H2    O108   2.58487       .     S
O110  H2     1.91314       .     S
H2    O110   1.91314       .     S
O6    H4     2.17684       .     S
H4    O6     2.17684       .     S
O7    H4     1.90802       .     S
H4    O7     1.90802       .     S
O105  H5     2.29788       .     S
H5    O105   2.29788       .     S
O16   H9     2.17684       .     S
H9    O16    2.17684       .     S
O17   H9     1.90802       .     S
H9    O17    1.90802       .     S
O31   H10    2.29788       .     S
H10   O31    2.29788       .     S
O30   H14    1.99345       .     S
H14   O30    1.99345       .     S
O34   H15    2.58487       .     S
H15   O34    2.58487       .     S
O36   H15    1.91314       .     S
H15   O36    1.91314       .     S
O268  H19    1.99345       .     S
H19   O268   1.99345       .     S
O272  H20    2.58487       .     S
H20   O272   2.58487       .     S
O274  H20    1.91314       .     S
H20   O274   1.91314       .     S
O97   H22    1.73694       .     S
H22   O97    1.73694       .     S
O98   H22    2.13248       .     S
H22   O98    2.13248       .     S
O21   H28    1.55531       .     S
H28   O21    1.55531       .     S
O97   H28    2.08883       .     S
H28   O97    2.08883       .     S
O98   H28    1.76672       .     S
H28   O98    1.76672       .     S
O0    H33    1.77956       .     S
H33   O0     1.77956       .     S
O11   H100   2.08883       .     S
H100  O11    2.08883       .     S
O12   H100   1.76672       .     S
H100  O12    1.76672       .     S
O13   H107   1.77969       .     S
H107  O13    1.77969       .     S
O11   H172   1.73695       .     S
H172  O11    1.73695       .     S
O12   H172   2.13249       .     S
H172  O12    2.13249       .     S
O16   H178   2.08883       .     S
H178  O16    2.08883       .     S
O17   H178   1.76672       .     S
H178  O17    1.76672       .     S
O18   H183   1.77956       .     S
H183  O18    1.77956       .     S
O16   H248   1.73695       .     S
H248  O16    1.73695       .     S
O17   H248   2.13249       .     S
H248  O17    2.13249       .     S
O97   H252   2.17684       .     S
H252  O97    2.17684       .     S
O98   H252   1.90803       .     S
H252  O98    1.90803       .     S
O181  H253   2.29788       .     S
H253  O181   2.29788       .     S
O11   H255   2.17684       .     S
H255  O11    2.17684       .     S
O12   H255   1.90802       .     S
H255  O12    1.90802       .     S
O269  H256   2.29788       .     S
H256  O269   2.29788       .     S
O180  H258   1.99345       .     S
H258  O180   1.99345       .     S
O184  H259   2.58486       .     S
H259  O184   2.58486       .     S
O186  H259   1.91314       .     S
H259  O186   1.91314       .     S
O6    H261   1.73694       .     S
H261  O6     1.73694       .     S
O7    H261   2.13248       .     S
H261  O7     2.13248       .     S
O257  H271   1.77956       .     S
H271  O257   1.77956       .     S
O6    H335   2.08883       .     S
H335  O6     2.08883       .     S
O7    H335   1.76672       .     S
H335  O7     1.76672       .     S
O260  H335   1.55531       .     S
H335  O260   1.55531       .     S
H1    O0     0.84955       .     S
O0    H1     0.84955       .     S
H2    O0     0.90090       .     S
O0    H2     0.90090       .     S
H4    O3     0.85033       .     S
O3    H4     0.85033       .     S
H5    O3     0.84991       .     S
O3    H5     0.84991       .     S
O7    O6     1.11191       .     S
O6    O7     1.11191       .     S
H9    O8     0.85033   1_565     S
O8    H9     0.85033   1_545     S
H10   O8     0.84992       .     S
O8    H10    0.84992       .     S
O12   O11    1.11191       .     S
O11   O12    1.11191       .     S
H14   O13    0.84955       .     S
O13   H14    0.84955       .     S
H15   O13    0.90090       .     S
O13   H15    0.90090       .     S
O17   O16    1.11191       .     S
O16   O17    1.11191       .     S
H19   O18    0.84954       .     S
O18   H19    0.84954       .     S
H20   O18    0.90090       .     S
O18   H20    0.90090       .     S
H22   O21    0.83013       .     S
O21   H22    0.83013       .     S
C24   O21    1.34817       .     S
O21   C24    1.34817       .     S
C25   O21    1.06972       .     S
O21   C25    1.06972       .     S
O27   O21    1.05815       .     S
O21   O27    1.05815       .     S
C24   O23    1.17924       .     S
O23   C24    1.17924       .     S
O26   O23    0.62186       .     S
O23   O26    0.62186       .     S
C25   C24    0.62587       .     S
C24   C25    0.62587       .     S
O26   C24    0.77573       .     S
C24   O26    0.77573       .     S
C66   C24    1.56106       .     S
C24   C66    1.56106       .     S
O26   C25    1.32342       .     S
C25   O26    1.32342       .     S
O27   C25    1.20554       .     S
C25   O27    1.20554       .     S
C66   C25    1.49613       .     S
C25   C66    1.49613       .     S
H28   O26    0.84565       .     S
O26   H28    0.84565       .     S
C38   O29    1.37411       .     S
O29   C38    1.37411       .     S
C57   O29    1.42557       .     S
O29   C57    1.42557       .     S
C52   O30    1.42012       .     S
O30   C52    1.42012       .     S
C74   O30    1.43011       .     S
O30   C74    1.43011       .     S
C39   O31    1.37186       .     S
O31   C39    1.37186       .     S
C71   O31    1.43456       .     S
O31   C71    1.43456       .     S
H33   O32    0.83001   1_565     S
O32   H33    0.83001   1_545     S
C47   O32    1.31743   1_655     S
O32   C47    1.31743   1_455     S
C79   O34    1.41047       .     S
O34   C79    1.41047       .     S
C88   O34    1.42401       .     S
O34   C88    1.42401       .     S
C47   O35    1.19701   1_655     S
O35   C47    1.19701   1_455     S
C85   O36    1.41458   1_554     S
O36   C85    1.41458   1_556     S
C91   O36    1.42794   1_554     S
O36   C91    1.42794   1_556     S
C82   O37    1.43166       .     S
O37   C82    1.43166       .     S
C94   O37    1.40268       .     S
O37   C94    1.40268       .     S
C39   C38    1.39666       .     S
C38   C39    1.39666       .     S
C40   C38    1.37423       .     S
C38   C40    1.37423       .     S
C48   C39    1.38223       .     S
C39   C48    1.38223       .     S
H41   C40    0.93984       .     S
C40   H41    0.93984       .     S
C42   C40    1.40266       .     S
C40   C42    1.40266       .     S
C43   C42    1.39119       .     S
C42   C43    1.39119       .     S
C44   C42    1.50080       .     S
C42   C44    1.50080       .     S
C45   C43    1.49281       .     S
C43   C45    1.49281       .     S
C48   C43    1.40158       .     S
C43   C48    1.40158       .     S
C62   C44    1.35644       .     S
C44   C62    1.35644       .     S
C67   C44    1.39648       .     S
C44   C67    1.39648       .     S
C50   C45    1.38771       .     S
C45   C50    1.38771       .     S
C60   C45    1.38734       .     S
C45   C60    1.38734       .     S
C47   C46    1.49344       .     S
C46   C47    1.49344       .     S
C55   C46    1.39688       .     S
C46   C55    1.39688       .     S
C64   C46    1.38022       .     S
C46   C64    1.38022       .     S
H49   C48    0.94006       .     S
C48   H49    0.94006       .     S
H51   C50    0.94012       .     S
C50   H51    0.94012       .     S
C55   C50    1.38758       .     S
C50   C55    1.38758       .     S
H53   C52    0.97983       .     S
C52   H53    0.97983       .     S
H54   C52    0.98044       .     S
C52   H54    0.98044       .     S
C57   C52    1.49866       .     S
C52   C57    1.49866       .     S
H56   C55    0.94040       .     S
C55   H56    0.94040       .     S
H58   C57    0.97987       .     S
C57   H58    0.97987       .     S
H59   C57    0.98044       .     S
C57   H59    0.98044       .     S
H61   C60    0.94024       .     S
C60   H61    0.94024       .     S
C64   C60    1.38383       .     S
C60   C64    1.38383       .     S
H63   C62    0.94009       .     S
C62   H63    0.94009       .     S
C69   C62    1.40252       .     S
C62   C69    1.40252       .     S
H65   C64    0.93999       .     S
C64   H65    0.93999       .     S
C69   C66    1.38050       .     S
C66   C69    1.38050       .     S
C77   C66    1.36976       .     S
C66   C77    1.36976       .     S
H68   C67    0.93999       .     S
C67   H68    0.93999       .     S
C77   C67    1.38188       .     S
C67   C77    1.38188       .     S
H70   C69    0.94010       .     S
C69   H70    0.94010       .     S
H72   C71    0.98012   1_565     S
C71   H72    0.98012   1_545     S
H73   C71    0.97997   1_565     S
C71   H73    0.97997   1_545     S
C82   C71    1.47453       .     S
C71   C82    1.47453       .     S
H75   C74    0.98012       .     S
C74   H75    0.98012       .     S
H76   C74    0.97998       .     S
C74   H76    0.97998       .     S
C79   C74    1.49038       .     S
C74   C79    1.49038       .     S
H78   C77    0.94011       .     S
C77   H78    0.94011       .     S
H80   C79    0.97951       .     S
C79   H80    0.97951       .     S
H81   C79    0.98054   1_655     S
C79   H81    0.98054   1_455     S
H83   C82    0.98034       .     S
C82   H83    0.98034       .     S
H84   C82    0.98028       .     S
C82   H84    0.98028       .     S
H86   C85    0.98007       .     S
C85   H86    0.98007       .     S
H87   C85    0.97983       .     S
C85   H87    0.97983       .     S
C88   C85    1.48472   1_556     S
C85   C88    1.48472   1_554     S
H89   C88    0.97986   1_554     S
C88   H89    0.97986   1_556     S
H90   C88    0.97995       .     S
C88   H90    0.97995       .     S
H92   C91    0.98052       .     S
C91   H92    0.98052       .     S
H93   C91    0.97954       .     S
C91   H93    0.97954       .     S
C94   C91    1.50824   1_556     S
C91   C94    1.50824   1_554     S
H95   C94    0.97983       .     S
C94   H95    0.97983       .     S
H96   C94    0.97959       .     S
C94   H96    0.97959       .     S
O98   O97    1.11191       .     S
O97   O98    1.11191       .     S
H100  O99    0.84565       .     S
O99   H100   0.84565       .     S
C101  O99    1.32342   1_556     S
O99   C101   1.32342   1_554     S
O173  O99    0.62186       .     S
O99   O173   0.62186       .     S
C174  O99    0.77573   1_556     S
O99   C174   0.77573   1_554     S
O102  C101   1.20554       .     S
C101  O102   1.20554       .     S
C140  C101   1.49613       .     S
C101  C140   1.49613       .     S
O171  C101   1.06972       .     S
C101  O171   1.06972       .     S
C174  C101   0.62587       .     S
C101  C174   0.62587       .     S
O171  O102   1.05815       .     S
O102  O171   1.05815       .     S
C112  O103   1.37411       .     S
O103  C112   1.37411       .     S
C131  O103   1.42557       .     S
O103  C131   1.42557       .     S
C126  O104   1.42015       .     S
O104  C126   1.42015       .     S
C148  O104   1.43011       .     S
O104  C148   1.43011       .     S
C113  O105   1.37186       .     S
O105  C113   1.37186       .     S
C145  O105   1.43456       .     S
O105  C145   1.43456       .     S
H107  O106   0.82988       .     S
O106  H107   0.82988       .     S
C121  O106   1.31743       .     S
O106  C121   1.31743       .     S
C153  O108   1.41047       .     S
O108  C153   1.41047       .     S
C162  O108   1.42402       .     S
O108  C162   1.42402       .     S
C121  O109   1.19702       .     S
O109  C121   1.19702       .     S
C159  O110   1.41458       .     S
O110  C159   1.41458       .     S
C165  O110   1.42794       .     S
O110  C165   1.42794       .     S
C156  O111   1.43168   1_655     S
O111  C156   1.43168   1_455     S
C168  O111   1.40268       .     S
O111  C168   1.40268       .     S
C113  C112   1.39666       .     S
C112  C113   1.39666       .     S
C114  C112   1.37419       .     S
C112  C114   1.37419       .     S
C122  C113   1.38223   1_655     S
C113  C122   1.38223   1_455     S
H115  C114   0.93989       .     S
C114  H115   0.93989       .     S
C116  C114   1.40265   1_655     S
C114  C116   1.40265   1_455     S
C117  C116   1.39119       .     S
C116  C117   1.39119       .     S
C118  C116   1.50081       .     S
C116  C118   1.50081       .     S
C119  C117   1.49281       .     S
C117  C119   1.49281       .     S
C122  C117   1.40158       .     S
C117  C122   1.40158       .     S
C136  C118   1.35644       .     S
C118  C136   1.35644       .     S
C141  C118   1.39648   1_545     S
C118  C141   1.39648   1_565     S
C124  C119   1.38771       .     S
C119  C124   1.38771       .     S
C134  C119   1.38734       .     S
C119  C134   1.38734       .     S
C121  C120   1.49344       .     S
C120  C121   1.49344       .     S
C129  C120   1.39688       .     S
C120  C129   1.39688       .     S
C138  C120   1.38026       .     S
C120  C138   1.38026       .     S
H123  C122   0.94006       .     S
C122  H123   0.94006       .     S
H125  C124   0.94012       .     S
C124  H125   0.94012       .     S
C129  C124   1.38758       .     S
C124  C129   1.38758       .     S
H127  C126   0.97997       .     S
C126  H127   0.97997       .     S
H128  C126   0.98028       .     S
C126  H128   0.98028       .     S
C131  C126   1.49868       .     S
C126  C131   1.49868       .     S
H130  C129   0.94040       .     S
C129  H130   0.94040       .     S
H132  C131   0.97985       .     S
C131  H132   0.97985       .     S
H133  C131   0.98044       .     S
C131  H133   0.98044       .     S
H135  C134   0.94020       .     S
C134  H135   0.94020       .     S
C138  C134   1.38381       .     S
C134  C138   1.38381       .     S
H137  C136   0.94010   1_455     S
C136  H137   0.94010   1_655     S
C143  C136   1.40252   1_545     S
C136  C143   1.40252   1_565     S
H139  C138   0.93997       .     S
C138  H139   0.93997       .     S
C143  C140   1.38050       .     S
C140  C143   1.38050       .     S
C151  C140   1.36976       .     S
C140  C151   1.36976       .     S
C174  C140   1.56106       .     S
C140  C174   1.56106       .     S
H142  C141   0.93999       .     S
C141  H142   0.93999       .     S
C151  C141   1.38188       .     S
C141  C151   1.38188       .     S
H144  C143   0.94010       .     S
C143  H144   0.94010       .     S
H146  C145   0.98025   1_655     S
C145  H146   0.98025   1_455     S
H147  C145   0.98003       .     S
C145  H147   0.98003       .     S
C156  C145   1.47448   1_655     S
C145  C156   1.47448   1_455     S
H149  C148   0.98012       .     S
C148  H149   0.98012       .     S
H150  C148   0.98011       .     S
C148  H150   0.98011       .     S
C153  C148   1.49038       .     S
C148  C153   1.49038       .     S
H152  C151   0.94011       .     S
C151  H152   0.94011       .     S
H154  C153   0.97951   1_545     S
C153  H154   0.97951   1_565     S
H155  C153   0.98054       .     S
C153  H155   0.98054       .     S
H157  C156   0.98031       .     S
C156  H157   0.98031       .     S
H158  C156   0.98035       .     S
C156  H158   0.98035       .     S
H160  C159   0.98006       .     S
C159  H160   0.98006       .     S
H161  C159   0.97983       .     S
C159  H161   0.97983       .     S
C162  C159   1.48472       .     S
C159  C162   1.48472       .     S
H163  C162   0.97986       .     S
C162  H163   0.97986       .     S
H164  C162   0.97995       .     S
C162  H164   0.97995       .     S
H166  C165   0.98052       .     S
C165  H166   0.98052       .     S
H167  C165   0.97952       .     S
C165  H167   0.97952       .     S
C168  C165   1.50824       .     S
C165  C168   1.50824       .     S
H169  C168   0.97983       .     S
C168  H169   0.97983       .     S
H170  C168   0.97959   1_655     S
C168  H170   0.97959   1_455     S
H172  O171   0.83012   1_554     S
O171  H172   0.83012   1_556     S
C174  O171   1.34817       .     S
O171  C174   1.34817       .     S
C174  O173   1.17924   1_556     S
O173  C174   1.17924   1_554     S
O176  C175   1.20549       .     S
C175  O176   1.20549       .     S
O177  C175   1.32342   1_556     S
C175  O177   1.32342   1_554     S
C216  C175   1.49613       .     S
C175  C216   1.49613       .     S
O247  C175   1.06972       .     S
C175  O247   1.06972       .     S
C250  C175   0.62587       .     S
C175  C250   0.62587       .     S
O247  O176   1.05808       .     S
O176  O247   1.05808       .     S
H178  O177   0.84565       .     S
O177  H178   0.84565       .     S
O249  O177   0.62186       .     S
O177  O249   0.62186       .     S
C250  O177   0.77573   1_554     S
O177  C250   0.77573   1_556     S
C188  O179   1.37411       .     S
O179  C188   1.37411       .     S
C207  O179   1.42557       .     S
O179  C207   1.42557       .     S
C202  O180   1.42015       .     S
O180  C202   1.42015       .     S
C224  O180   1.43011       .     S
O180  C224   1.43011       .     S
C189  O181   1.37186       .     S
O181  C189   1.37186       .     S
C221  O181   1.43456       .     S
O181  C221   1.43456       .     S
H183  O182   0.83001       .     S
O182  H183   0.83001       .     S
C197  O182   1.31743       .     S
O182  C197   1.31743       .     S
C229  O184   1.41047       .     S
O184  C229   1.41047       .     S
C238  O184   1.42401       .     S
O184  C238   1.42401       .     S
C197  O185   1.19702       .     S
O185  C197   1.19702       .     S
C235  O186   1.41458       .     S
O186  C235   1.41458       .     S
C241  O186   1.42794       .     S
O186  C241   1.42794       .     S
C232  O187   1.43168   1_455     S
O187  C232   1.43168   1_655     S
C244  O187   1.40268       .     S
O187  C244   1.40268       .     S
C189  C188   1.39666       .     S
C188  C189   1.39666       .     S
C190  C188   1.37423       .     S
C188  C190   1.37423       .     S
C198  C189   1.38223   1_455     S
C189  C198   1.38223   1_655     S
H191  C190   0.93984       .     S
C190  H191   0.93984       .     S
C192  C190   1.40265   1_455     S
C190  C192   1.40265   1_655     S
C193  C192   1.39119       .     S
C192  C193   1.39119       .     S
C194  C192   1.50080       .     S
C192  C194   1.50080       .     S
C195  C193   1.49281       .     S
C193  C195   1.49281       .     S
C198  C193   1.40158       .     S
C193  C198   1.40158       .     S
C212  C194   1.35644       .     S
C194  C212   1.35644       .     S
C217  C194   1.39648   1_565     S
C194  C217   1.39647   1_545     S
C200  C195   1.38776       .     S
C195  C200   1.38776       .     S
C210  C195   1.38734       .     S
C195  C210   1.38734       .     S
C197  C196   1.49344       .     S
C196  C197   1.49344       .     S
C205  C196   1.39688       .     S
C196  C205   1.39688       .     S
C214  C196   1.38026       .     S
C196  C214   1.38026       .     S
H199  C198   0.94006       .     S
C198  H199   0.94006       .     S
H201  C200   0.94010       .     S
C200  H201   0.94010       .     S
C205  C200   1.38756       .     S
C200  C205   1.38756       .     S
H203  C202   0.97997       .     S
C202  H203   0.97997       .     S
H204  C202   0.98028       .     S
C202  H204   0.98028       .     S
C207  C202   1.49868       .     S
C202  C207   1.49868       .     S
H206  C205   0.94040       .     S
C205  H206   0.94040       .     S
H208  C207   0.97985       .     S
C207  H208   0.97985       .     S
H209  C207   0.98044       .     S
C207  H209   0.98044       .     S
H211  C210   0.94024       .     S
C210  H211   0.94024       .     S
C214  C210   1.38381       .     S
C210  C214   1.38381       .     S
H213  C212   0.94010   1_655     S
C212  H213   0.94009   1_455     S
C219  C212   1.40252   1_565     S
C212  C219   1.40252   1_545     S
H215  C214   0.93997       .     S
C214  H215   0.93997       .     S
C219  C216   1.38050       .     S
C216  C219   1.38050       .     S
C227  C216   1.36976       .     S
C216  C227   1.36976       .     S
C250  C216   1.56106       .     S
C216  C250   1.56106       .     S
H218  C217   0.93999       .     S
C217  H218   0.93999       .     S
C227  C217   1.38188       .     S
C217  C227   1.38188       .     S
H220  C219   0.94010       .     S
C219  H220   0.94010       .     S
H222  C221   0.98012   1_455     S
C221  H222   0.98012   1_655     S
H223  C221   0.98003       .     S
C221  H223   0.98003       .     S
C232  C221   1.47448   1_455     S
C221  C232   1.47448   1_655     S
H225  C224   0.98012       .     S
C224  H225   0.98012       .     S
H226  C224   0.97998       .     S
C224  H226   0.97998       .     S
C229  C224   1.49038       .     S
C224  C229   1.49038       .     S
H228  C227   0.94011       .     S
C227  H228   0.94011       .     S
H230  C229   0.97951   1_565     S
C229  H230   0.97951   1_545     S
H231  C229   0.98054       .     S
C229  H231   0.98054       .     S
H233  C232   0.98031       .     S
C232  H233   0.98031       .     S
H234  C232   0.98035       .     S
C232  H234   0.98035       .     S
H236  C235   0.98007       .     S
C235  H236   0.98007       .     S
H237  C235   0.97983       .     S
C235  H237   0.97983       .     S
C238  C235   1.48472       .     S
C235  C238   1.48472       .     S
H239  C238   0.97986       .     S
C238  H239   0.97986       .     S
H240  C238   0.97995       .     S
C238  H240   0.97995       .     S
H242  C241   0.98059       .     S
C241  H242   0.98059       .     S
H243  C241   0.97954       .     S
C241  H243   0.97954       .     S
C244  C241   1.50824       .     S
C241  C244   1.50824       .     S
H245  C244   0.97983       .     S
C244  H245   0.97983       .     S
H246  C244   0.97959   1_455     S
C244  H246   0.97959   1_655     S
H248  O247   0.83012   1_556     S
O247  H248   0.83012   1_554     S
C250  O247   1.34817       .     S
O247  C250   1.34817       .     S
C250  O249   1.17924   1_554     S
O249  C250   1.17924   1_556     S
H252  O251   0.85033       .     S
O251  H252   0.85033       .     S
H253  O251   0.84991       .     S
O251  H253   0.84991       .     S
H255  O254   0.85033   1_545     S
O254  H255   0.85033   1_565     S
H256  O254   0.84991       .     S
O254  H256   0.84991       .     S
H258  O257   0.84954       .     S
O257  H258   0.84954       .     S
H259  O257   0.90090       .     S
O257  H259   0.90090       .     S
H261  O260   0.83013       .     S
O260  H261   0.83013       .     S
C263  O260   1.34817       .     S
O260  C263   1.34817       .     S
C264  O260   1.06972       .     S
O260  C264   1.06972       .     S
O266  O260   1.05815       .     S
O260  O266   1.05815       .     S
C263  O262   1.17924       .     S
O262  C263   1.17924       .     S
O265  O262   0.62186       .     S
O262  O265   0.62186       .     S
C264  C263   0.62587       .     S
C263  C264   0.62587       .     S
O265  C263   0.77573       .     S
C263  O265   0.77573       .     S
C304  C263   1.56106       .     S
C263  C304   1.56106       .     S
O265  C264   1.32342       .     S
C264  O265   1.32342       .     S
O266  C264   1.20554       .     S
C264  O266   1.20554       .     S
C304  C264   1.49613       .     S
C264  C304   1.49613       .     S
H335  O265   0.84565       .     S
O265  H335   0.84565       .     S
C276  O267   1.37411       .     S
O267  C276   1.37411       .     S
C295  O267   1.42557       .     S
O267  C295   1.42557       .     S
C290  O268   1.42015       .     S
O268  C290   1.42015       .     S
C312  O268   1.43011       .     S
O268  C312   1.43011       .     S
C277  O269   1.37186       .     S
O269  C277   1.37186       .     S
C309  O269   1.43456       .     S
O269  C309   1.43456       .     S
H271  O270   0.83001   1_545     S
O270  H271   0.83001   1_565     S
C285  O270   1.31743   1_455     S
O270  C285   1.31743   1_655     S
C317  O272   1.41047       .     S
O272  C317   1.41047       .     S
C326  O272   1.42402       .     S
O272  C326   1.42402       .     S
C285  O273   1.19702   1_455     S
O273  C285   1.19702   1_655     S
C323  O274   1.41458   1_556     S
O274  C323   1.41458   1_554     S
C329  O274   1.42794   1_556     S
O274  C329   1.42794   1_554     S
C320  O275   1.43168       .     S
O275  C320   1.43168       .     S
C332  O275   1.40268       .     S
O275  C332   1.40268       .     S
C277  C276   1.39666       .     S
C276  C277   1.39666       .     S
C278  C276   1.37419       .     S
C276  C278   1.37419       .     S
C286  C277   1.38223       .     S
C277  C286   1.38223       .     S
H279  C278   0.93989       .     S
C278  H279   0.93989       .     S
C280  C278   1.40265       .     S
C278  C280   1.40265       .     S
C281  C280   1.39119       .     S
C280  C281   1.39119       .     S
C282  C280   1.50081       .     S
C280  C282   1.50081       .     S
C283  C281   1.49281       .     S
C281  C283   1.49281       .     S
C286  C281   1.40158       .     S
C281  C286   1.40158       .     S
C300  C282   1.35644       .     S
C282  C300   1.35644       .     S
C305  C282   1.39647       .     S
C282  C305   1.39647       .     S
C288  C283   1.38776       .     S
C283  C288   1.38776       .     S
C298  C283   1.38734       .     S
C283  C298   1.38734       .     S
C285  C284   1.49344       .     S
C284  C285   1.49344       .     S
C293  C284   1.39688       .     S
C284  C293   1.39688       .     S
C302  C284   1.38022       .     S
C284  C302   1.38022       .     S
H287  C286   0.94006       .     S
C286  H287   0.94006       .     S
H289  C288   0.94010       .     S
C288  H289   0.94010       .     S
C293  C288   1.38756       .     S
C288  C293   1.38756       .     S
H291  C290   0.97997       .     S
C290  H291   0.97997       .     S
H292  C290   0.98028       .     S
C290  H292   0.98028       .     S
C295  C290   1.49868       .     S
C290  C295   1.49868       .     S
H294  C293   0.94040       .     S
C293  H294   0.94040       .     S
H296  C295   0.97985       .     S
C295  H296   0.97985       .     S
H297  C295   0.98044       .     S
C295  H297   0.98044       .     S
H299  C298   0.94020       .     S
C298  H299   0.94020       .     S
C302  C298   1.38383       .     S
C298  C302   1.38383       .     S
H301  C300   0.94010       .     S
C300  H301   0.94010       .     S
C307  C300   1.40252       .     S
C300  C307   1.40252       .     S
H303  C302   0.93999       .     S
C302  H303   0.93999       .     S
C307  C304   1.38050       .     S
C304  C307   1.38050       .     S
C315  C304   1.36976       .     S
C304  C315   1.36976       .     S
H306  C305   0.93999       .     S
C305  H306   0.93999       .     S
C315  C305   1.38188       .     S
C305  C315   1.38188       .     S
H308  C307   0.94010       .     S
C307  H308   0.94010       .     S
H310  C309   0.98025   1_545     S
C309  H310   0.98025   1_565     S
H311  C309   0.97997   1_545     S
C309  H311   0.97997   1_565     S
C320  C309   1.47448       .     S
C309  C320   1.47448       .     S
H313  C312   0.98012       .     S
C312  H313   0.98012       .     S
H314  C312   0.98011       .     S
C312  H314   0.98011       .     S
C317  C312   1.49038       .     S
C312  C317   1.49038       .     S
H316  C315   0.94011       .     S
C315  H316   0.94011       .     S
H318  C317   0.97951       .     S
C317  H318   0.97951       .     S
H319  C317   0.98054   1_455     S
C317  H319   0.98054   1_655     S
H321  C320   0.98031       .     S
C320  H321   0.98031       .     S
H322  C320   0.98035       .     S
C320  H322   0.98035       .     S
H324  C323   0.98006       .     S
C323  H324   0.98006       .     S
H325  C323   0.97983       .     S
C323  H325   0.97983       .     S
C326  C323   1.48472   1_554     S
C323  C326   1.48472   1_556     S
H327  C326   0.97986   1_556     S
C326  H327   0.97986   1_554     S
H328  C326   0.97995       .     S
C326  H328   0.97995       .     S
H330  C329   0.98052       .     S
C329  H330   0.98052       .     S
H331  C329   0.97954       .     S
C329  H331   0.97954       .     S
C332  C329   1.50824   1_554     S
C329  C332   1.50824   1_556     S
H333  C332   0.97983       .     S
C332  H333   0.97983       .     S
H334  C332   0.97959       .     S
C332  H334   0.97959       .     S
