data_I
_chemical_name_common  '/data/user2/wty/HOF/MOFDiff/mofdiff/data/test/1882ct-18c6-'
_cell_length_a 13.10940
_cell_length_b 25.34050
_cell_length_c 26.74570
_cell_angle_alpha 105.28100
_cell_angle_beta  90.12800
_cell_angle_gamma 91.83400
_space_group_name_H-M_alt      'P 1'


loop_
_space_group_symop_operation_xyz
  'x, y, z' 

loop_
_atom_site_label
_atom_site_fract_x
_atom_site_fract_y
_atom_site_fract_z
_atom_site_type_symbol
O0      0.8657   0.8537   0.9099     O
N1      0.9136   0.7668    0.905     N
C2       0.901    0.816   0.9291     C
H3     0.91884  0.82619  0.96411     H
C4      0.8904   0.7407   0.8538     C
H5     0.94195  0.71496  0.83994     H
H6     0.88791  0.76736  0.83413     H
H7     0.82532  0.72178  0.85174     H
C8        0.95   0.7282   0.9349     C
H9     0.89279  0.70744  0.94297     H
H10    0.98287  0.74881  0.96643     H
H11    0.99759  0.70378  0.91434     H
O12     0.4684   0.4808   0.4281     O
N13     0.4187   0.5644    0.428     N
C14      0.436   0.5095    0.399     C
H15    0.42511  0.49637  0.36344     H
C16      0.444   0.5901    0.479     C
H17    0.44372  0.56359  0.49885     H
H18    0.39503  0.61735  0.49294     H
H19    0.51072  0.60723  0.48059     H
C20     0.3852   0.6035   0.3983     C
H21    0.44286  0.62546  0.39274     H
H22    0.33459   0.6267  0.41772     H
H23    0.35671  0.58327   0.3655     H
O24     0.1343   0.1463   0.0901     O
N25     0.0864   0.2332    0.095     N
C26      0.099    0.184   0.0709     C
H27    0.08116  0.17381  0.03589     H
C28     0.1096   0.2593   0.1462     C
H29    0.05805  0.28504  0.16006     H
H30    0.11209  0.23264  0.16587     H
H31    0.17468  0.27822  0.14826     H
C32       0.05   0.2718   0.0651     C
H33    0.10721  0.29256  0.05703     H
H34    0.01713  0.25119  0.03357     H
H35    0.00241  0.29623  0.08566     H
O36     0.1986   0.1874   0.2438     O
N37     0.2484   0.1019   0.2422     N
C38     0.2251   0.1491    0.247     C
H39    0.25245  0.16255  0.28019     H
C40      0.281   0.0607   0.2624     C
H41    0.22542  0.04757  0.27965     H
H42    0.30466  0.03122  0.23486     H
H43    0.33568  0.07448   0.2867     H
C44       0.22   0.0764   0.1859     C
H45    0.15703  0.05588  0.18371     H
H46    0.21366  0.10469  0.16841     H
H47    0.27313  0.05238  0.16975     H
O48     0.7786   0.3552   0.2141     O
O49    0.86494   0.4492    0.279     O
O50    0.93759  0.52768   0.2328     O
O51    0.92228  0.51048   0.1343     O
O52     0.8358   0.4164    0.073     O
O53     0.7631   0.3378   0.1166     O
O54     0.8667   0.9527   0.9669     O
H55    0.85442  0.92076  0.95107     H
O56     0.7035   0.9619   0.9513     O
O57     0.5606   0.6781   0.0504     O
O58      0.571   0.5884   0.0119     O
H59      0.637    0.607    0.003     H
O60     0.0224   0.0363   0.2844     O
H61    0.03372  0.01117   0.2974     H
O62     0.8783   0.9871   0.2559     O
O63     0.4831   0.7792   0.3533     O
O64     0.5867   0.7104    0.347     O
C65     0.8059   0.1942   0.1161     C
C66     0.8274   0.2023   0.1683     C
C67     0.8238   0.2561   0.2023     C
H68    0.83873  0.26057  0.23718     H
C69     0.7993    0.302   0.1864     C
C70      0.792   0.3606   0.2675     C
H71    0.86032  0.35117  0.27507     H
H72    0.74279  0.33769  0.27978     H
C73     0.7741   0.4214   0.2918     C
H74    0.71347  0.43286  0.27727     H
H75    0.76662  0.42876  0.32907     H
C76     0.8433    0.507   0.3019     C
H77    0.83601  0.51462  0.33914     H
H78    0.78147  0.51694  0.28708     H
C79      0.935   0.5372   0.2882     C
H80    0.93082  0.57608  0.30452     H
H81     0.9967  0.52434  0.30044     H
C82     0.0212   0.5452    0.211     C
C83     0.1034   0.5729   0.2378     C
H84    0.10306  0.58127  0.27378     H
C85     0.1887   0.5893   0.2134     C
C86     0.1872   0.5751   0.1587     C
C87     0.0988   0.5479    0.132     C
H88    0.09858  0.53941  0.09597     H
C89     0.0129    0.533   0.1559     C
C90    0.91441  0.50162   0.0797     C
H91    0.97253  0.48197  0.06273     H
H92     0.9118  0.53623  0.07071     H
C93      0.817   0.4682   0.0635     C
H94    0.75998  0.48539  0.08378     H
H95    0.80213  0.46402  0.02705     H
C96       0.73   0.3908   0.0582     C
H97    0.67881  0.40954  0.08191     H
H98    0.71141  0.39107   0.0231     H
C99     0.7429    0.334   0.0626     C
H100   0.68135  0.31182  0.05098     H
H101   0.79928  0.31733  0.04148     H
C102    0.7816   0.2922   0.1322     C
C103    0.7863   0.2405   0.0983     C
H104   0.77624  0.23623  0.06298     H
C105    0.8041    0.139   0.0775     C
C106    0.8839   0.1048   0.0748     C
H107   0.94079  0.11596  0.09622     H
C108    0.8793   0.0534   0.0397     C
H109   0.93438  0.03059  0.03691     H
C110    0.7945   0.0361   0.0095     C
C111     0.718   0.0717   0.0127     C
H112   0.66166    0.061  0.99069     H
C113      0.72   0.1227   0.0467     C
H114   0.66518  0.14554  0.04876     H
C115     0.783   0.9797   0.9721     C
C116    0.2722   0.5904   0.1271     C
C117    0.3187   0.6425    0.139     C
H118   0.29561  0.66936  0.16706     H
C119    0.3988   0.6551   0.1097     C
H120   0.42785   0.6903  0.11812     H
C121    0.4357    0.616   0.0683     C
C122    0.3878   0.5639   0.0552     C
H123   0.41077  0.53729  0.02687     H
C124    0.3082   0.5517   0.0831     C
H125   0.27679  0.51705  0.07298     H
C126    0.5272   0.6318    0.043     C
C127    0.8521   0.1567   0.1924     C
C128    0.7932   0.1108   0.1859     C
H129   0.73317  0.10713  0.16655     H
C130    0.8202   0.0685   0.2076     C
H131   0.77852  0.03698  0.20184     H
C132    0.9073   0.0729   0.2372     C
C133    0.9666   0.1213   0.2455     C
H134   0.02525  0.12552  0.26595     H
C135    0.9403   0.1625   0.2242     C
H136   0.98066  0.19445  0.23069     H
C137    0.9336   0.0274   0.2606     C
C138     0.274   0.6222   0.2459     C
C139    0.3717   0.6063    0.247     C
H140   0.38987  0.57215  0.22685     H
C141    0.4439   0.6404   0.2779     C
H142   0.50966  0.62806  0.27913     H
C143    0.4221   0.6921   0.3069     C
C144    0.3235   0.7075   0.3057     C
H145   0.30588  0.74185  0.32553     H
C146      0.25    0.674   0.2763     C
H147   0.18356  0.68581  0.27642     H
C148     0.503   0.7301   0.3378     C
Na149  0.84778  0.42996  0.17407    Na
O150    0.7004   0.4756   0.1902     O
N151    0.6203    0.544    0.164     N
C152    0.6922   0.5243   0.1887     C
H153   0.74159   0.5493  0.20679     H
C154    0.6263   0.6004   0.1632     C
H155   0.66642  0.62111  0.19219     H
H156   0.55881   0.6144  0.16514     H
H157   0.65756  0.60333  0.13155     H
C158    0.5427   0.5069   0.1351     C
H159   0.55327  0.50217  0.09867     H
H160   0.47677  0.52171  0.14428     H
H161   0.54639   0.4722  0.14296     H
O162    0.0091   0.3986   0.1634     O
N163    0.1801   0.4191   0.1764     N
C164    0.0923     0.41   0.1479     C
H165   0.09586  0.41258  0.11393     H
C166     0.176   0.4183     0.23     C
H167   0.20167  0.38454  0.23368     H
H168   0.10638  0.42156  0.24139     H
H169   0.21657  0.44844  0.25057     H
C170     0.272   0.4332   0.1552     C
H171    0.3277  0.41624  0.16762     H
H172    0.2828  0.47219  0.16541     H
H173   0.26814  0.42065  0.11807     H
Na174  0.15222  0.57004  0.82593    Na
O175    0.2996   0.5244   0.8098     O
N176    0.3797    0.456    0.836     N
C177    0.3078   0.4757   0.8113     C
H178   0.25841   0.4507  0.79321     H
C179    0.3737   0.3996   0.8368     C
H180   0.33358  0.37889  0.80781     H
H181   0.44119   0.3856  0.83486     H
H182   0.34244  0.39667  0.86845     H
C183    0.4573   0.4931   0.8649     C
H184   0.44673  0.49783  0.90133     H
H185   0.52323  0.47829  0.85572     H
H186   0.45361   0.5278  0.85704     H
O187    0.2214   0.6448   0.7859     O
O188   0.13506   0.5508    0.721     O
O189   0.06241  0.47232   0.7672     O
O190   0.07772  0.48952   0.8657     O
O191    0.1642   0.5836    0.927     O
O192    0.2369   0.6622   0.8834     O
O193    0.1333   0.0473   0.0331     O
H194   0.14558  0.07924  0.04893     H
O195    0.2965   0.0381   0.0487     O
O196    0.4394   0.3219   0.9496     O
O197     0.429   0.4116   0.9881     O
H198     0.363    0.393    0.997     H
O199    0.9776   0.9637   0.7156     O
H200   0.96628  0.98883   0.7026     H
O201    0.1217   0.0129   0.7441     O
O202    0.5169   0.2208   0.6467     O
O203    0.4133   0.2896    0.653     O
C204    0.1941   0.8058   0.8839     C
C205    0.1726   0.7977   0.8317     C
C206    0.1762   0.7439   0.7977     C
H207   0.16127  0.73943  0.76282     H
C208    0.2007    0.698   0.8136     C
C209     0.208   0.6394   0.7325     C
H210   0.13968  0.64883  0.72493     H
H211   0.25721  0.66231  0.72022     H
C212    0.2259   0.5786   0.7082     C
H213   0.28653  0.56714  0.72273     H
H214   0.23338  0.57124  0.67093     H
C215    0.1567    0.493   0.6981     C
H216   0.16399  0.48538  0.66086     H
H217   0.21853  0.48306  0.71292     H
C218     0.065   0.4628   0.7118     C
H219   0.06918  0.42392  0.69548     H
H220    0.0033  0.47566  0.69956     H
C221    0.9788   0.4548    0.789     C
C222    0.8966   0.4271   0.7622     C
H223   0.89694  0.41873  0.72622     H
C224    0.8113   0.4107   0.7866     C
C225    0.8128   0.4249   0.8413     C
C226    0.9012   0.4521    0.868     C
H227   0.90142  0.46059  0.90403     H
C228    0.9871    0.467   0.8441     C
C229   0.08559  0.49838   0.9203     C
H230   0.02747  0.51803  0.93727     H
H231    0.0882  0.46377  0.92929     H
C232     0.183   0.5318   0.9365     C
H233   0.24002  0.51461  0.91622     H
H234   0.19787  0.53598  0.97295     H
C235      0.27   0.6092   0.9418     C
H236   0.32119  0.59046  0.91809     H
H237   0.28859  0.60893   0.9769     H
C238    0.2571    0.666   0.9374     C
H239   0.31865  0.68818  0.94902     H
H240   0.20072  0.68267  0.95853     H
C241    0.2184   0.7078   0.8678     C
C242    0.2137   0.7595   0.9017     C
H243   0.22376  0.76377  0.93702     H
C244    0.1959    0.861   0.9225     C
C245    0.1161   0.8952   0.9252     C
H246   0.05921  0.88404  0.90378     H
C247    0.1207   0.9466   0.9603     C
H248   0.06562  0.96941   0.9631     H
C249    0.2055   0.9639   0.9905     C
C250     0.282   0.9283   0.9873     C
H251   0.33834    0.939  0.00931     H
C252      0.28   0.8773   0.9533     C
H253   0.33482  0.85446  0.95124     H
C254     0.217   0.0203   0.0279     C
C255    0.7278   0.4096   0.8729     C
C256    0.6813   0.3575    0.861     C
H257   0.70439  0.33064  0.83294     H
C258    0.6012   0.3449   0.8903     C
H259   0.57215   0.3097  0.88188     H
C260    0.5643    0.384   0.9317     C
C261    0.6122   0.4361   0.9448     C
H262   0.58923  0.46271  0.97313     H
C263    0.6918   0.4483   0.9169     C
H264   0.72321  0.48295  0.92702     H
C265    0.4728   0.3682    0.957     C
C266    0.1479   0.8433   0.8076     C
C267    0.2068   0.8892   0.8141     C
H268   0.26683  0.89287  0.83345     H
C269    0.1798   0.9315   0.7924     C
H270   0.22148  0.96302  0.79816     H
C271    0.0927   0.9271   0.7628     C
C272    0.0334   0.8787   0.7545     C
H273   0.97475  0.87448  0.73405     H
C274    0.0597   0.8375   0.7758     C
H275   0.01934  0.80555  0.76931     H
C276    0.0664   0.9726   0.7394     C
C277     0.726   0.3778   0.7541     C
C278    0.6283   0.3937    0.753     C
H279   0.61013  0.42785  0.77315     H
C280    0.5561   0.3596   0.7221     C
H281   0.49034  0.37194  0.72088     H
C282    0.5779   0.3079   0.6931     C
C283    0.6765   0.2925   0.6943     C
H284   0.69412  0.25815  0.67447     H
C285      0.75    0.326   0.7237     C
H286   0.81644  0.31419  0.72358     H
C287     0.497   0.2699   0.6622     C
O288    0.9909   0.6014   0.8366     O
N289    0.8199   0.5809   0.8236     N
C290    0.9077     0.59   0.8521     C
H291   0.90414  0.58742  0.88607     H
C292     0.824   0.5817     0.77     C
H293   0.79833  0.61546  0.76632     H
H294   0.89362  0.57844  0.75861     H
H295   0.78343  0.55157  0.74943     H
C296     0.728   0.5668   0.8448     C
H297    0.6723  0.58376  0.83238     H
H298    0.7172  0.52781  0.83459     H
H299   0.73186  0.57935  0.88193     H
O300    0.8014   0.8126   0.7562     O
N301    0.7516   0.8981   0.7578     N
C302    0.7749   0.8509    0.753     C
H303   0.74755  0.83745  0.71981     H
C304     0.719   0.9393   0.7376     C
H305   0.77458  0.95243  0.72035     H
H306   0.69534  0.96878  0.76515     H
H307   0.66432  0.92552   0.7133     H
C308      0.78   0.9236   0.8141     C
H309   0.84297  0.94412   0.8163     H
H310   0.78634  0.89531  0.83159     H
H311   0.72687  0.94762  0.83025     H
Na312   0.5171   0.0965  0.84071    Na
O313     0.678   0.0665   0.8307     O
N314    0.8462   0.0852   0.8437     N
C315    0.7629   0.0769    0.814     C
H316   0.76794  0.07906  0.77985     H
C317     0.844   0.0863   0.8973     C
H318    0.8744  0.05393  0.90208     H
H319   0.88204  0.11806    0.917     H
H320   0.77482  0.08765  0.90884     H
C321     0.937      0.1   0.8206     C
H322   0.92366  0.09772  0.78474     H
H323   0.95842  0.13675  0.83827     H
H324   0.98983  0.07544  0.82311     H
O325     0.597   0.1758   0.8012     O
O326    0.4807   0.0891   0.7414     O
O327    0.4266   0.0049   0.7834     O
O328    0.4601   0.0182   0.8803     O
O329    0.5175   0.1179   0.9459     O
O330    0.6018   0.1939   0.8991     O
O331    0.1501   0.4456   0.0202     O
O332    0.2539   0.3773   0.0128     O
O333    0.5459    0.655   0.9228     O
O334    0.6885   0.7033    0.951     O
H335   0.70054  0.67649  0.96154     H
O336    0.2272   0.3434   0.7165     O
O337    0.2391   0.2544   0.6777     O
H338   0.29234  0.26495  0.66696     H
O339    0.5328   0.6204   0.6334     O
H340   0.52093  0.58844  0.63343     H
O341    0.3698   0.6282   0.6173     O
C342     0.856   0.2559   0.8784     C
C343     0.854   0.2425   0.8248     C
C344      0.77   0.2149   0.7979     C
H345   0.76938  0.20553  0.76182     H
C346    0.6872   0.2012   0.8238     C
C347    0.5865   0.1679   0.7454     C
H348   0.59237  0.20276  0.73693     H
H349   0.63957  0.14462   0.7274     H
C350    0.4837   0.1415   0.7297     C
H351   0.47229  0.13666  0.69292     H
H352   0.43094  0.16429  0.74856     H
C353    0.3928   0.0554   0.7235     C
H354   0.33396  0.07056  0.74344     H
H355   0.37962  0.05379  0.68739     H
C356    0.4091   0.9998   0.7289     C
H357   0.46755  0.98414  0.70884     H
H358    0.3495  0.97616   0.7165     H
C359    0.4466   0.9586   0.7973     C
C360    0.4503   0.9066   0.7655     C
H361   0.43754  0.90092  0.73021     H
C362    0.4727   0.8617   0.7843     C
C363    0.4936    0.869   0.8371     C
C364    0.4896   0.9215   0.8684     C
H365   0.50353   0.9278  0.90367     H
C366    0.4657    0.965   0.8494     C
C367     0.456   0.0288   0.9354     C
H368   0.40203  0.00624  0.94473     H
H369   0.52011  0.01951  0.94851     H
C370    0.4368   0.0868   0.9589     C
H371   0.43241  0.09371  0.99622     H
H372   0.37279  0.09644  0.94587     H
C373    0.5112   0.1762   0.9686     C
H374   0.45021  0.18945    0.956     H
H375   0.50716  0.18372  0.00598     H
C376    0.6026   0.2048   0.9544     C
H377   0.66413   0.1913  0.96627     H
H378   0.60029  0.24384  0.97029     H
C379    0.6872   0.2114   0.8785     C
C380    0.7728   0.2401   0.9042     C
H381   0.77451  0.24919  0.94023     H
C382    0.9402   0.2892   0.9126     C
C383    0.0362   0.2728   0.9131     C
H384   0.05244  0.23846   0.8925     H
C385    0.1128   0.3057   0.9437     C
H386   0.17857  0.29304  0.94386     H
C387    0.0896   0.3573   0.9738     C
C388     0.991   0.3738    0.972     C
H389   0.97486  0.40863  0.99145     H
C390    0.9139   0.3404   0.9421     C
H391   0.84741  0.35218  0.94215     H
C392    0.1715   0.3966   0.0044     C
C393    0.5183   0.8235   0.8607     C
C394    0.6051   0.8283     0.89     C
H395   0.64581  0.86013  0.89563     H
C396    0.6335   0.7872   0.9113     C
H397   0.69368  0.79075   0.9306     H
C398    0.5718   0.7408   0.9038     C
C399    0.4838   0.7354   0.8742     C
H400   0.44181  0.70412  0.86925     H
C401    0.4589   0.7762   0.8523     C
H402   0.40092    0.772  0.83134     H
C403    0.5996   0.6955   0.9264     C
C404    0.9402   0.2569   0.7934     C
C405    0.9836   0.3093   0.8058     C
H406   0.95866  0.33605   0.8335     H
C407    0.0625   0.3219   0.7776     C
H408   0.09084  0.35727  0.78657     H
C409    0.1028   0.2829   0.7353     C
C410     0.055   0.2309   0.7224     C
H411   0.07859  0.20415  0.69438     H
C412    0.9738   0.2183   0.7503     C
H413   0.94166  0.18387  0.74017     H
C414     0.194   0.2962   0.7078     C
C415    0.4728   0.8059   0.7456     C
C416    0.5508   0.7705   0.7412     C
H417   0.60886  0.78098  0.76193     H
C418    0.5448   0.7192   0.7064     C
H419   0.59889  0.69579  0.70386     H
C420    0.4592   0.7025   0.6754     C
C421    0.3797   0.7387   0.6795     C
H422   0.32151  0.72854  0.65886     H
C423     0.388   0.7895   0.7145     C
H424    0.3346  0.81338  0.71716     H
C425    0.4477   0.6467   0.6395     C
O426    0.3672   0.1424   0.8571     O
N427    0.2902   0.2096   0.8321     N
C428     0.362   0.1909   0.8563     C
H429    0.4122   0.2156  0.87397     H
C430    0.2113    0.173   0.8011     C
H431   0.21327  0.13778  0.80818     H
H432   0.14547  0.18807  0.80994     H
H433   0.22352  0.16904  0.76497     H
C434    0.2913   0.2653   0.8279     C
H435   0.29709  0.26538  0.79214     H
H436   0.22912  0.28218   0.8416     H
H437   0.34837  0.28549  0.84719     H
O438     0.403   0.8242   0.1988     O
O439    0.5193   0.9109   0.2586     O
O440    0.5734   0.9951   0.2166     O
O441    0.5399   0.9818   0.1197     O
O442    0.4825   0.8821   0.0541     O
O443    0.3982   0.8061   0.1009     O
O444    0.8499   0.5544   0.9798     O
O445    0.7461   0.6227   0.9872     O
O446    0.4541    0.345   0.0772     O
O447    0.3115   0.2967    0.049     O
H448   0.29946  0.32351  0.03846     H
O449    0.7728   0.6566   0.2835     O
O450    0.7609   0.7456   0.3223     O
H451   0.70766  0.73505  0.33304     H
O452    0.4672   0.3796   0.3666     O
H453   0.47907  0.41156  0.36658     H
O454    0.6302   0.3718   0.3827     O
C455     0.144   0.7441   0.1216     C
C456     0.146   0.7575   0.1752     C
C457      0.23   0.7851   0.2021     C
H458   0.23062  0.79447  0.23818     H
C459    0.3128   0.7988   0.1762     C
C460    0.4135   0.8321   0.2546     C
H461   0.40763  0.79724  0.26307     H
H462   0.36043  0.85538  0.27261     H
C463    0.5163   0.8585   0.2703     C
H464   0.52771  0.86334  0.30708     H
H465   0.56906  0.83571  0.25144     H
C466    0.6072   0.9446   0.2765     C
H467   0.66604  0.92944  0.25657     H
H468   0.62038  0.94621  0.31262     H
C469    0.5909   0.0002   0.2711     C
H470   0.53245  0.01586  0.29116     H
H471    0.6505  0.02384   0.2835     H
C472    0.5534   0.0414   0.2027     C
C473    0.5497   0.0934   0.2345     C
H474   0.56246  0.09908  0.26979     H
C475    0.5273   0.1383   0.2157     C
C476    0.5064    0.131   0.1629     C
C477    0.5104   0.0785   0.1316     C
H478   0.49647   0.0722  0.09634     H
C479    0.5343    0.035   0.1506     C
C480     0.544   0.9712   0.0646     C
H481   0.59797  0.99376  0.05527     H
H482   0.47989  0.98049  0.05149     H
C483    0.5632   0.9132   0.0411     C
H484   0.56759  0.90629  0.00378     H
H485   0.62721  0.90356  0.05413     H
C486    0.4888   0.8238   0.0314     C
H487    0.5498  0.81055    0.044     H
H488   0.49284  0.81628  0.99402     H
C489    0.3974   0.7952   0.0456     C
H490   0.33587   0.8087  0.03373     H
H491   0.39971  0.75616  0.02971     H
C492    0.3128   0.7886   0.1215     C
C493    0.2272   0.7599   0.0958     C
H494   0.22548  0.75081  0.05977     H
C495    0.0598   0.7108   0.0874     C
C496    0.9638   0.7272   0.0869     C
H497   0.94756  0.76154   0.1075     H
C498    0.8872   0.6943   0.0563     C
H499   0.82143  0.70696  0.05614     H
C500    0.9104   0.6427   0.0262     C
C501     0.009   0.6262    0.028     C
H502   0.02514  0.59137  0.00855     H
C503    0.0861   0.6596   0.0579     C
H504   0.15259  0.64782  0.05785     H
C505    0.8285   0.6034   0.9956     C
C506    0.4817   0.1765   0.1393     C
C507    0.3949   0.1717     0.11     C
H508   0.35419  0.13987  0.10437     H
C509    0.3665   0.2128   0.0887     C
H510   0.30633  0.20925   0.0694     H
C511    0.4282   0.2592   0.0962     C
C512    0.5162   0.2646   0.1258     C
H513   0.55819  0.29588  0.13075     H
C514    0.5411   0.2238   0.1477     C
H515   0.59908    0.228  0.16866     H
C516    0.4004   0.3045   0.0736     C
C517    0.0598   0.7431   0.2066     C
C518    0.0164   0.6907   0.1942     C
H519   0.04134  0.66395   0.1665     H
C520    0.9375   0.6781   0.2224     C
H521   0.90916  0.64273  0.21344     H
C522    0.8972   0.7171   0.2647     C
C523     0.945   0.7691   0.2776     C
H524   0.92141  0.79585  0.30562     H
C525    0.0262   0.7817   0.2497     C
H526   0.05834  0.81613  0.25983     H
C527     0.806   0.7038   0.2922     C
C528    0.5272   0.1941   0.2544     C
C529    0.4492   0.2295   0.2588     C
H530   0.39114  0.21902  0.23807     H
C531    0.4552   0.2808   0.2936     C
H532   0.40111  0.30421  0.29614     H
C533    0.5408   0.2975   0.3246     C
C534    0.6203   0.2613   0.3205     C
H535   0.67849  0.27146  0.34114     H
C536     0.612   0.2105   0.2855     C
H537    0.6654  0.18662  0.28284     H
C538    0.5523   0.3533   0.3605     C
Na539   0.4829   0.9035  0.15929    Na
O540     0.322   0.9335   0.1693     O
N541    0.1538   0.9148   0.1563     N
C542    0.2371   0.9231    0.186     C
H543   0.23206  0.92094  0.22015     H
C544     0.156   0.9137   0.1027     C
H545    0.1256  0.94607  0.09792     H
H546   0.11796  0.88194    0.083     H
H547   0.22518  0.91235  0.09116     H
C548     0.063      0.9   0.1794     C
H549   0.07634  0.90228  0.21526     H
H550   0.04159  0.86325  0.16173     H
H551   0.01017  0.92456  0.17689     H
O552    0.6328   0.8576   0.1429     O
N553    0.7098   0.7904   0.1679     N
C554     0.638   0.8091   0.1437     C
H555    0.5878   0.7844  0.12603     H
C556    0.7887    0.827   0.1989     C
H557   0.78674  0.86223  0.19183     H
H558   0.85453  0.81193  0.19006     H
H559   0.77648  0.83096  0.23503     H
C560    0.7087   0.7347   0.1721     C
H561   0.70292  0.73462  0.20786     H
H562   0.77088  0.71782   0.1584     H
H563   0.65163  0.71451  0.15281     H
O564    0.5316   0.5192   0.5719     O
N565    0.5813   0.4356    0.572     N
C566     0.564   0.4905    0.601     C
H567   0.57489  0.50363  0.63656     H
C568     0.556   0.4099    0.521     C
H569   0.55628  0.43641  0.50115     H
H570   0.60497  0.38265  0.50706     H
H571   0.48928  0.39277  0.51941     H
C572    0.6148   0.3965   0.6017     C
H573   0.55714  0.37454  0.60726     H
H574   0.66541   0.3733  0.58228     H
H575   0.64329  0.41673   0.6345     H
O576    0.9064   0.3284   0.5502     O
O577    0.8522   0.2445   0.5923     O
O578    0.7352   0.1575   0.5326     O
O579    0.7306   0.1389   0.4338     O
O580    0.8163    0.215   0.3869     O
O581    0.8728   0.3148   0.4531     O
O582    0.6431   0.6306   0.3823     O
H583   0.64959  0.63479  0.35306     H
O584     0.788   0.6791   0.4103     O
O585    0.1825    0.887   0.3137     O
O586    0.0802    0.956   0.3193     O
O587    0.7999   0.7128   0.6994     O
H588   0.81085  0.74369  0.71831     H
O589    0.9625   0.7046   0.7155     O
O590    0.1066   0.9888    0.617     O
O591    0.0959   0.0781   0.6544     O
H592    0.0406  0.06828  0.66376     H
C593    0.8387   0.4643   0.4968     C
C594    0.8601   0.4721   0.5489     C
C595    0.8829   0.4275    0.568     C
H596   0.89802  0.43355  0.60307     H
C597    0.8838   0.3755   0.5367     C
C598     0.923   0.3333   0.6036     C
H599   0.86367  0.34833   0.6233     H
H600   0.98144  0.35771  0.61625     H
C601    0.9419   0.2773     0.61     C
H602   0.00023  0.26182   0.5897     H
H603   0.95551  0.27916  0.64608     H
C604    0.8479   0.1928   0.6039     C
H605   0.85832  0.19774  0.64076     H
H606   0.90131  0.17003  0.58555     H
C607    0.7461   0.1658   0.5877     C
H608   0.74097  0.13099  0.59629     H
H609   0.69256  0.18876  0.60555     H
C610    0.6491   0.1326   0.5097     C
C611    0.5665   0.1193   0.5356     C
H612   0.56801  0.12905  0.57169     H
C613    0.4796   0.0915   0.5096     C
C614    0.4784    0.078   0.4554     C
C615    0.5637   0.0941   0.4296     C
H616   0.56273  0.08562  0.39362     H
C617    0.6468   0.1215   0.4558     C
C618    0.7302   0.1299   0.3792     C
H619   0.66934  0.14457  0.36805     H
H620   0.73076  0.09102  0.36249     H
C621    0.8232    0.158   0.3649     C
H622   0.88384  0.14483   0.3779     H
H623   0.82783  0.15024   0.3275     H
C624    0.8976   0.2474   0.3753     C
H625   0.90516  0.23977  0.33804     H
H626    0.9607  0.23859  0.38984     H
C627    0.8772   0.3064   0.3973     C
H628   0.93127  0.32917   0.3884     H
H629   0.81293  0.31542  0.38408     H
C630    0.8665   0.3671   0.4833     C
C631    0.8448     0.41   0.4642     C
H632   0.83352  0.40393  0.42871     H
C633    0.8146   0.5104   0.4729     C
C634    0.8751   0.5562   0.4809     C
H635   0.93464  0.55937  0.50059     H
C636     0.849   0.5983   0.4598     C
H637   0.89079   0.6298  0.46603     H
C638    0.7611   0.5944   0.4295     C
C639     0.698   0.5454   0.4203     C
H640   0.63959  0.54134   0.3997     H
C641    0.7251   0.5038   0.4426     C
H642   0.68441  0.47209  0.43741     H
C643    0.7319   0.6391   0.4064     C
C644    0.3947   0.0436   0.4211     C
C645    0.2988   0.0607   0.4206     C
H646   0.28326  0.09514  0.44117     H
C647    0.2208   0.0278     0.39     C
H648   0.15543  0.04091   0.3897     H
C649    0.2425   0.9761   0.3606     C
C650    0.3431   0.9588    0.361     C
H651   0.35985  0.92435  0.34094     H
C652    0.4166   0.9925   0.3906     C
H653   0.48302  0.98056   0.3901     H
C654    0.1632   0.9357   0.3288     C
C655    0.8634   0.5281    0.589     C
C656    0.7836   0.5627   0.5921     C
H657   0.72651  0.55197   0.5707     H
C658     0.789   0.6136   0.6272     C
H659   0.73433  0.63666  0.63003     H
C660    0.8745   0.6307   0.6581     C
C661     0.953   0.5948   0.6549     C
H662   0.00994   0.6048   0.6765     H
C663    0.9467   0.5441   0.6195     C
H664   0.00086  0.52072  0.61657     H
C665    0.8852   0.6856   0.6936     C
C666    0.3924   0.0758   0.5397     C
C667    0.3571    0.115   0.5834     C
H668   0.38774  0.14988  0.59274     H
C669    0.2794   0.1027   0.6119     C
H670   0.25675  0.12888  0.64072     H
C671    0.2332     0.05   0.5977     C
C672      0.27   0.0115    0.556     C
H673   0.24029  0.97646  0.54703     H
C674    0.3483   0.0235   0.5279     C
H675   0.37293   0.9965  0.50033     H
C676    0.1402   0.0356   0.6242     C
Na677   0.8163   0.2375  0.49281    Na
O678      0.66   0.2688   0.5036     O
N679    0.4879    0.247   0.4918     N
C680    0.3958   0.2342   0.5129     C
H681   0.40495   0.2384  0.54935     H
H682   0.37472  0.19712  0.49622     H
H683   0.34447  0.25848  0.50757     H
C684    0.5827   0.2579   0.5194     C
H685   0.58203  0.25596  0.55365     H
C686    0.4933   0.2493   0.4405     C
H687   0.56272  0.25656  0.43232     H
H688   0.45148  0.27807  0.43565     H
H689   0.46929  0.21501  0.41806     H
O690    0.9665   0.1905   0.4765     O
N691    0.0436   0.1242   0.5021     N
C692    0.9738   0.1432   0.4771     C
H693   0.92552  0.11816  0.45805     H
C694    0.1221   0.1608   0.5333     C
H695   0.12944  0.19339  0.52149     H
H696   0.18585  0.14271  0.52986     H
H697   0.10232  0.17048  0.56903     H
C698    0.0406   0.0689   0.5046     C
H699   0.02803  0.06767  0.53964     H
H700   0.10485  0.05285   0.4936     H
H701   0.98705  0.04892  0.48236     H
O702    0.0936   0.6716   0.4498     O
O703    0.1478   0.7555   0.4077     O
O704    0.2648   0.8425   0.4674     O
O705    0.2694   0.8611   0.5662     O
O706    0.1837    0.785   0.6131     O
O707    0.1272   0.6852   0.5469     O
O708    0.3569   0.3694   0.6177     O
H709   0.35041  0.36521  0.64694     H
O710     0.212   0.3209   0.5897     O
O711    0.8175    0.113   0.6863     O
O712    0.9198    0.044   0.6807     O
O713    0.2001   0.2872   0.3006     O
H714   0.18915  0.25632  0.28169     H
O715    0.0375   0.2954   0.2845     O
O716    0.8934   0.0112    0.383     O
O717    0.9041   0.9219   0.3456     O
H718    0.9594  0.93172  0.33625     H
C719    0.1613   0.5357   0.5032     C
C720    0.1399   0.5279   0.4511     C
C721    0.1171   0.5725    0.432     C
H722   0.10198  0.56645  0.39693     H
C723    0.1162   0.6245   0.4633     C
C724     0.077   0.6667   0.3964     C
H725   0.13633  0.65167   0.3767     H
H726   0.01856  0.64229  0.38376     H
C727    0.0581   0.7227     0.39     C
H728   0.99977  0.73819   0.4103     H
H729    0.0445  0.72084  0.35392     H
C730    0.1521   0.8072   0.3961     C
H731   0.14168  0.80226  0.35924     H
H732   0.09869  0.82997  0.41445     H
C733    0.2539   0.8342   0.4123     C
H734   0.25903  0.86901  0.40371     H
H735   0.30744  0.81124  0.39445     H
C736    0.3509   0.8674   0.4903     C
C737    0.4335   0.8807   0.4644     C
H738   0.43199  0.87095  0.42831     H
C739    0.5204   0.9085   0.4904     C
C740    0.5216    0.922   0.5446     C
C741    0.4363   0.9059   0.5704     C
H742   0.43727  0.91438  0.60638     H
C743    0.3532   0.8785   0.5442     C
C744    0.2698   0.8701   0.6208     C
H745   0.33066  0.85543  0.63195     H
H746   0.26924  0.90898  0.63751     H
C747    0.1768    0.842   0.6351     C
H748   0.11616  0.85517   0.6221     H
H749   0.17217  0.84976   0.6725     H
C750    0.1024   0.7526   0.6247     C
H751   0.09484  0.76023  0.66196     H
H752    0.0393  0.76141  0.61016     H
C753    0.1228   0.6936   0.6027     C
H754   0.06872  0.67083   0.6116     H
H755   0.18707  0.68458  0.61592     H
C756    0.1335   0.6329   0.5167     C
C757    0.1552     0.59   0.5358     C
H758   0.16648  0.59607  0.57129     H
C759    0.1854   0.4896   0.5271     C
C760    0.1249   0.4438   0.5191     C
H761   0.06536  0.44063  0.49941     H
C762     0.151   0.4017   0.5402     C
H763   0.10921   0.3702  0.53397     H
C764    0.2389   0.4056   0.5705     C
C765     0.302   0.4546   0.5797     C
H766   0.36041  0.45866   0.6003     H
C767    0.2749   0.4962   0.5574     C
H768   0.31559  0.52791   0.5626     H
C769    0.2681   0.3609   0.5936     C
C770    0.6053   0.9564   0.5789     C
C771    0.7012   0.9393   0.5794     C
H772   0.71674  0.90486  0.55884     H
C773    0.7792   0.9722     0.61     C
H774   0.84457  0.95909   0.6103     H
C775    0.7575   0.0239   0.6394     C
C776    0.6569   0.0412    0.639     C
H777   0.64015  0.07565  0.65906     H
C778    0.5834   0.0075   0.6094     C
H779   0.51698  0.01944   0.6099     H
C780    0.8368   0.0643   0.6712     C
C781    0.1366   0.4719    0.411     C
C782    0.2164   0.4373   0.4079     C
H783   0.27349  0.44803   0.4293     H
C784     0.211   0.3864   0.3728     C
H785   0.26567  0.36335  0.36997     H
C786    0.1255   0.3693   0.3419     C
C787     0.047   0.4052   0.3451     C
H788   0.99006   0.3952   0.3235     H
C789    0.0533   0.4559   0.3805     C
H790   0.99914  0.47928  0.38343     H
C791    0.1148   0.3144   0.3064     C
C792    0.6076   0.9242   0.4603     C
C793    0.6429    0.885   0.4166     C
H794   0.61226  0.85012  0.40726     H
C795    0.7206   0.8973   0.3881     C
H796   0.74325  0.87112  0.35928     H
C797    0.7668     0.95   0.4023     C
C798      0.73   0.9885    0.444     C
H799   0.75971  0.02354  0.45297     H
C800    0.6517   0.9765   0.4721     C
H801   0.62707   0.0035  0.49967     H
C802    0.8598   0.9644   0.3758     C
Na803   0.1837   0.7625  0.50719    Na
O804      0.34   0.7312   0.4964     O
N805    0.5121    0.753   0.5082     N
C806    0.6042   0.7658   0.4871     C
H807   0.59505   0.7616  0.45065     H
H808   0.62528  0.80288  0.50378     H
H809   0.65553  0.74152  0.49243     H
C810    0.4173   0.7421   0.4806     C
H811   0.41797  0.74404  0.44635     H
C812    0.5067   0.7507   0.5595     C
H813   0.43728  0.74344  0.56769     H
H814   0.54852  0.72193  0.56436     H
H815   0.53071  0.78499  0.58194     H
O816    0.0335   0.8095   0.5235     O
N817    0.9564   0.8758   0.4979     N
C818    0.0262   0.8568   0.5229     C
H819   0.07448  0.88184  0.54195     H
C820    0.8779   0.8392   0.4667     C
H821   0.87056  0.80661  0.47851     H
H822   0.81415  0.85729  0.47014     H
H823   0.89768  0.82952  0.43097     H
C824    0.9594   0.9311   0.4954     C
H825   0.97197  0.93233  0.46036     H
H826   0.89515  0.94715   0.5064     H
H827   0.01295  0.95108  0.51764     H
loop_
_geom_bond_atom_site_label_1
_geom_bond_atom_site_label_2
_geom_bond_distance
_geom_bond_site_symmetry_2
_ccdc_geom_bond_type
H55   O0     1.77555       .     S
O0    H55    1.77555       .     S
H59   O445   1.56119   1_554     S
O445  H59    1.56119   1_556     S
H61   O586   1.77579   1_545     S
O586  H61    1.77579   1_565     S
H194  O24    1.77555       .     S
O24   H194   1.77555       .     S
H198  O332   1.56119   1_556     S
O332  H198   1.56120   1_554     S
H200  O712   1.77579   1_565     S
O712  H200   1.77579   1_545     S
H335  O445   1.79696       .     S
O445  H335   1.79696       .     S
H338  O203   1.76246       .     S
O203  H338   1.76246       .     S
H340  O564   2.07390       .     S
O564  H340   2.07390       .     S
H448  O332   1.79695       .     S
O332  H448   1.79695       .     S
H451  O64    1.76246       .     S
O64   H451   1.76246       .     S
H453  O12    2.07375       .     S
O12   H453   2.07375       .     S
H583  O64    2.15435       .     S
O64   H583   2.15435       .     S
H588  O300   1.78135       .     S
O300  H588   1.78135       .     S
H592  O712   1.78310   1_455     S
O712  H592   1.78310   1_655     S
H709  O203   2.15435       .     S
O203  H709   2.15435       .     S
H714  O36    1.78156       .     S
O36   H714   1.78156       .     S
H718  O586   1.78319   1_655     S
O586  H718   1.78319   1_455     S
O0    C2     1.29473       .     S
C2    O0     1.29473       .     S
N1    C2     1.25985       .     S
C2    N1     1.25985       .     S
N1    C4     1.38311       .     S
C4    N1     1.38311       .     S
N1    C8     1.50481       .     S
C8    N1     1.50481       .     S
C2    H3     0.93052       .     S
H3    C2     0.93052       .     S
C4    H5     0.95992       .     S
H5    C4     0.95992       .     S
C4    H6     0.96069       .     S
H6    C4     0.96069       .     S
C4    H7     0.95941       .     S
H7    C4     0.95941       .     S
C8    H9     0.95976       .     S
H9    C8     0.95976       .     S
C8    H10    0.95990       .     S
H10   C8     0.95990       .     S
C8    H11    0.95990       .     S
H11   C8     0.95990       .     S
O12   C14    1.27740       .     S
C14   O12    1.27740       .     S
N13   C14    1.42852       .     S
C14   N13    1.42852       .     S
N13   C16    1.38225       .     S
C16   N13    1.38225       .     S
N13   C20    1.49891       .     S
C20   N13    1.49891       .     S
C14   H15    0.93015       .     S
H15   C14    0.93015       .     S
C16   H17    0.95969       .     S
H17   C16    0.95969       .     S
C16   H18    0.96005       .     S
H18   C16    0.96005       .     S
C16   H19    0.95972       .     S
H19   C16    0.95972       .     S
C20   H21    0.95935       .     S
H21   C20    0.95935       .     S
C20   H22    0.95976       .     S
H22   C20    0.95976       .     S
C20   H23    0.95974       .     S
H23   C20    0.95974       .     S
O24   C26    1.29474       .     S
C26   O24    1.29474       .     S
N25   C26    1.25985       .     S
C26   N25    1.25985       .     S
N25   C28    1.38311       .     S
C28   N25    1.38311       .     S
N25   C32    1.50481       .     S
C32   N25    1.50481       .     S
C26   H27    0.93052       .     S
H27   C26    0.93052       .     S
C28   H29    0.95992       .     S
H29   C28    0.95992       .     S
C28   H30    0.96068       .     S
H30   C28    0.96068       .     S
C28   H31    0.95941       .     S
H31   C28    0.95941       .     S
C32   H33    0.95976       .     S
H33   C32    0.95976       .     S
C32   H34    0.95990       .     S
H34   C32    0.95990       .     S
C32   H35    0.96003       .     S
H35   C32    0.96003       .     S
O36   C38    1.06545       .     S
C38   O36    1.06545       .     S
N37   C38    1.21778       .     S
C38   N37    1.21778       .     S
N37   C40    1.37454       .     S
C40   N37    1.37454       .     S
N37   C44    1.51419       .     S
C44   N37    1.51419       .     S
C38   H39    0.92951       .     S
H39   C38    0.92951       .     S
C40   H41    0.95987       .     S
H41   C40    0.95987       .     S
C40   H42    0.96053       .     S
H42   C40    0.96053       .     S
C40   H43    0.95939       .     S
H43   C40    0.95939       .     S
C44   H45    0.95474       .     S
H45   C44    0.95474       .     S
C44   H46    0.95919       .     S
H46   C44    0.95919       .     S
C44   H47    0.96544       .     S
H47   C44    0.96544       .     S
O48   C69    1.39204       .     S
C69   O48    1.39204       .     S
O48   C70    1.40845       .     S
C70   O48    1.40845       .     S
O48   Na149  2.55366       .     S
Na149 O48    2.55366       .     S
O49   C73    1.45150       .     S
C73   O49    1.45150       .     S
O49   C76    1.46813       .     S
C76   O49    1.46813       .     S
O49   Na149  2.72640       .     S
Na149 O49    2.72640       .     S
O50   C79    1.43776       .     S
C79   O50    1.43776       .     S
O50   C82    1.35890   1_655     S
C82   O50    1.35890   1_455     S
O51   C89    1.36031   1_655     S
C89   O51    1.36031   1_455     S
O51   C90    1.42077       .     S
C90   O51    1.42077       .     S
O51   Na149  2.69623       .     S
Na149 O51    2.69623       .     S
O52   C93    1.42988       .     S
C93   O52    1.42988       .     S
O52   C96    1.51849       .     S
C96   O52    1.51849       .     S
O52   Na149  2.63723       .     S
Na149 O52    2.63723       .     S
O53   C99    1.44522       .     S
C99   O53    1.44522       .     S
O53   C102   1.35638       .     S
C102  O53    1.35638       .     S
O53   Na149  2.64258       .     S
Na149 O53    2.64258       .     S
O54   H55    0.81914       .     S
H55   O54    0.81914       .     S
O54   C115   1.30001       .     S
C115  O54    1.30001       .     S
O56   C115   1.19757       .     S
C115  O56    1.19757       .     S
O57   C126   1.20489       .     S
C126  O57    1.20489       .     S
O58   H59    1.03023       .     S
H59   O58    1.03023       .     S
O58   C126   1.33845       .     S
C126  O58    1.33845       .     S
O60   H61    0.81912       .     S
H61   O60    0.81912       .     S
O60   C137   1.30974   1_455     S
C137  O60    1.30974   1_655     S
O62   C137   1.21194   1_565     S
C137  O62    1.21194   1_545     S
O63   C148   1.23991       .     S
C148  O63    1.23991       .     S
O64   C148   1.26977       .     S
C148  O64    1.26977       .     S
C65   C66    1.38356       .     S
C66   C65    1.38356       .     S
C65   C103   1.40797       .     S
C103  C65    1.40797       .     S
C65   C105   1.50319       .     S
C105  C65    1.50319       .     S
C66   C67    1.42780       .     S
C67   C66    1.42780       .     S
C66   C127   1.50704       .     S
C127  C66    1.50704       .     S
C67   H68    0.92924       .     S
H68   C67    0.92924       .     S
C67   C69    1.38596       .     S
C69   C67    1.38596       .     S
C69   C102   1.42195       .     S
C102  C69    1.42195       .     S
C70   H71    0.96884       .     S
H71   C70    0.96884       .     S
C70   H72    0.96879       .     S
H72   C70    0.96879       .     S
C70   C73    1.53207       .     S
C73   C70    1.53207       .     S
C73   H74    0.96953       .     S
H74   C73    0.96953       .     S
C73   H75    0.97039       .     S
H75   C73    0.97039       .     S
C76   H77    0.96886       .     S
H77   C76    0.96886       .     S
C76   H78    0.97047       .     S
H78   C76    0.97047       .     S
C76   C79    1.50198       .     S
C79   C76    1.50198       .     S
C79   H80    0.97011       .     S
H80   C79    0.97011       .     S
C79   H81    0.96929       .     S
H81   C79    0.96929       .     S
C82   C83    1.36038       .     S
C83   C82    1.36038       .     S
C82   C89    1.42694       .     S
C89   C82    1.42694       .     S
C83   H84    0.92927       .     S
H84   C83    0.92927       .     S
C83   C85    1.40196       .     S
C85   C83    1.40196       .     S
C85   C86    1.41143       .     S
C86   C85    1.41143       .     S
C85   C138   1.50169       .     S
C138  C85    1.50169       .     S
C86   C87    1.41906       .     S
C87   C86    1.41906       .     S
C86   C116   1.50185       .     S
C116  C86    1.50185       .     S
C87   H88    0.93036       .     S
H88   C87    0.93036       .     S
C87   C89    1.38654       .     S
C89   C87    1.38654       .     S
C90   H91    0.97014       .     S
H91   C90    0.97014       .     S
C90   H92    0.97016       .     S
H92   C90    0.97016       .     S
C90   C93    1.50683       .     S
C93   C90    1.50683       .     S
C93   H94    0.96996       .     S
H94   C93    0.96996       .     S
C93   H95    0.97109       .     S
H95   C93    0.97109       .     S
C96   H97    0.97033       .     S
H97   C96    0.97033       .     S
C96   H98    0.97119       .     S
H98   C96    0.97119       .     S
C96   C99    1.48960       .     S
C99   C96    1.48960       .     S
C99   H100   0.97022       .     S
H100  C99    0.97022       .     S
C99   H101   0.96947       .     S
H101  C99    0.96947       .     S
C102  C103   1.38619       .     S
C103  C102   1.38619       .     S
C103  H104   0.93066       .     S
H104  C103   0.93066       .     S
C105  C106   1.36969       .     S
C106  C105   1.36969       .     S
C105  C113   1.36094       .     S
C113  C105   1.36094       .     S
C106  H107   0.92929       .     S
H107  C106   0.92929       .     S
C106  C108   1.38984       .     S
C108  C106   1.38984       .     S
C108  H109   0.93020       .     S
H109  C108   0.93020       .     S
C108  C110   1.36329       .     S
C110  C108   1.36329       .     S
C110  C111   1.35812       .     S
C111  C110   1.35812       .     S
C110  C115   1.51588   1_544     S
C115  C110   1.51588   1_566     S
C111  H112   0.93095   1_554     S
H112  C111   0.93095   1_556     S
C111  C113   1.36970       .     S
C113  C111   1.36970       .     S
C113  H114   0.92977       .     S
H114  C113   0.92977       .     S
C116  C117   1.39358       .     S
C117  C116   1.39358       .     S
C116  C124   1.41178       .     S
C124  C116   1.41178       .     S
C117  H118   0.92902       .     S
H118  C117   0.92902       .     S
C117  C119   1.39025       .     S
C119  C117   1.39025       .     S
C119  H120   0.92918       .     S
H120  C119   0.92918       .     S
C119  C121   1.37715       .     S
C121  C119   1.37715       .     S
C121  C122   1.40080       .     S
C122  C121   1.40080       .     S
C121  C126   1.47401       .     S
C126  C121   1.47401       .     S
C122  H123   0.92962       .     S
H123  C122   0.92962       .     S
C122  C124   1.35858       .     S
C124  C122   1.35858       .     S
C124  H125   0.92998       .     S
H125  C124   0.92998       .     S
C127  C128   1.34708       .     S
C128  C127   1.34708       .     S
C127  C135   1.41447       .     S
C135  C127   1.41447       .     S
C128  H129   0.92947       .     S
H129  C128   0.92947       .     S
C128  C130   1.40085       .     S
C130  C128   1.40085       .     S
C130  H131   0.93118       .     S
H131  C130   0.93118       .     S
C130  C132   1.37267       .     S
C132  C130   1.37267       .     S
C132  C133   1.39734       .     S
C133  C132   1.39734       .     S
C132  C137   1.49826       .     S
C137  C132   1.49826       .     S
C133  H134   0.92939   1_655     S
H134  C133   0.92939   1_455     S
C133  C135   1.36714       .     S
C135  C133   1.36714       .     S
C135  H136   0.92934       .     S
H136  C135   0.92934       .     S
C138  C139   1.35747       .     S
C139  C138   1.35747       .     S
C138  C146   1.39574       .     S
C146  C138   1.39574       .     S
C139  H140   0.92951       .     S
H140  C139   0.92951       .     S
C139  C141   1.37597       .     S
C141  C139   1.37597       .     S
C141  H142   0.92983       .     S
H142  C141   0.92983       .     S
C141  C143   1.37440       .     S
C143  C141   1.37440       .     S
C143  C144   1.36485       .     S
C144  C143   1.36485       .     S
C143  C148   1.49875       .     S
C148  C143   1.49875       .     S
C144  H145   0.92865       .     S
H145  C144   0.92865       .     S
C144  C146   1.36373       .     S
C146  C144   1.36373       .     S
C146  H147   0.92972       .     S
H147  C146   0.92972       .     S
Na149 O150   2.26723       .     S
O150  Na149  2.26723       .     S
Na149 O162   2.27510   1_655     S
O162  Na149  2.27510   1_455     S
O150  C152   1.25327       .     S
C152  O150   1.25327       .     S
N151  C152   1.33238       .     S
C152  N151   1.33238       .     S
N151  C154   1.43464       .     S
C154  N151   1.43464       .     S
N151  C158   1.43820       .     S
C158  N151   1.43820       .     S
C152  H153   0.93029       .     S
H153  C152   0.93029       .     S
C154  H155   0.95877       .     S
H155  C154   0.95877       .     S
C154  H156   0.96017       .     S
H156  C154   0.96017       .     S
C154  H157   0.96060       .     S
H157  C154   0.96060       .     S
C158  H159   0.96074       .     S
H159  C158   0.96074       .     S
C158  H160   0.95984       .     S
H160  C158   0.95984       .     S
C158  H161   0.95908       .     S
H161  C158   0.95908       .     S
O162  C164   1.22062       .     S
C164  O162   1.22062       .     S
N163  C164   1.35848       .     S
C164  N163   1.35848       .     S
N163  C166   1.44014       .     S
C166  N163   1.44014       .     S
N163  C170   1.40815       .     S
C170  N163   1.40815       .     S
C164  H165   0.92910       .     S
H165  C164   0.92910       .     S
C166  H167   0.95785       .     S
H167  C166   0.95785       .     S
C166  H168   0.96198       .     S
H168  C166   0.96198       .     S
C166  H169   0.95921       .     S
H169  C166   0.95921       .     S
C170  H171   0.96046       .     S
H171  C170   0.96046       .     S
C170  H172   0.95889       .     S
H172  C170   0.95889       .     S
C170  H173   0.96029       .     S
H173  C170   0.96029       .     S
Na174 O175   2.26723       .     S
O175  Na174  2.26723       .     S
Na174 O187   2.55366       .     S
O187  Na174  2.55366       .     S
Na174 O188   2.72640       .     S
O188  Na174  2.72640       .     S
Na174 O190   2.69623       .     S
O190  Na174  2.69623       .     S
Na174 O191   2.63723       .     S
O191  Na174  2.63723       .     S
Na174 O192   2.64258       .     S
O192  Na174  2.64258       .     S
Na174 O288   2.27510   1_455     S
O288  Na174  2.27510   1_655     S
O175  C177   1.25327       .     S
C177  O175   1.25327       .     S
N176  C177   1.33238       .     S
C177  N176   1.33238       .     S
N176  C179   1.43464       .     S
C179  N176   1.43464       .     S
N176  C183   1.43820       .     S
C183  N176   1.43820       .     S
C177  H178   0.93029       .     S
H178  C177   0.93029       .     S
C179  H180   0.95877       .     S
H180  C179   0.95877       .     S
C179  H181   0.96017       .     S
H181  C179   0.96017       .     S
C179  H182   0.96060       .     S
H182  C179   0.96060       .     S
C183  H184   0.96074       .     S
H184  C183   0.96074       .     S
C183  H185   0.95984       .     S
H185  C183   0.95984       .     S
C183  H186   0.95908       .     S
H186  C183   0.95908       .     S
O187  C208   1.39204       .     S
C208  O187   1.39204       .     S
O187  C209   1.40845       .     S
C209  O187   1.40845       .     S
O188  C212   1.45150       .     S
C212  O188   1.45150       .     S
O188  C215   1.46813       .     S
C215  O188   1.46813       .     S
O189  C218   1.43776       .     S
C218  O189   1.43776       .     S
O189  C221   1.35890   1_455     S
C221  O189   1.35890   1_655     S
O190  C228   1.36031   1_455     S
C228  O190   1.36031   1_655     S
O190  C229   1.42077       .     S
C229  O190   1.42077       .     S
O191  C232   1.42988       .     S
C232  O191   1.42988       .     S
O191  C235   1.51849       .     S
C235  O191   1.51849       .     S
O192  C238   1.44522       .     S
C238  O192   1.44522       .     S
O192  C241   1.35638       .     S
C241  O192   1.35638       .     S
O193  H194   0.81914       .     S
H194  O193   0.81914       .     S
O193  C254   1.30000       .     S
C254  O193   1.30000       .     S
O195  C254   1.19757       .     S
C254  O195   1.19757       .     S
O196  C265   1.20489       .     S
C265  O196   1.20489       .     S
O197  H198   1.03023       .     S
H198  O197   1.03023       .     S
O197  C265   1.33845       .     S
C265  O197   1.33845       .     S
O199  H200   0.81912       .     S
H200  O199   0.81912       .     S
O199  C276   1.30975   1_655     S
C276  O199   1.30975   1_455     S
O201  C276   1.21194   1_545     S
C276  O201   1.21194   1_565     S
O202  C287   1.23991       .     S
C287  O202   1.23991       .     S
O203  C287   1.26977       .     S
C287  O203   1.26977       .     S
C204  C205   1.38355       .     S
C205  C204   1.38355       .     S
C204  C242   1.40797       .     S
C242  C204   1.40797       .     S
C204  C244   1.50319       .     S
C244  C204   1.50319       .     S
C205  C206   1.42780       .     S
C206  C205   1.42780       .     S
C205  C266   1.50704       .     S
C266  C205   1.50704       .     S
C206  H207   0.92924       .     S
H207  C206   0.92924       .     S
C206  C208   1.38596       .     S
C208  C206   1.38596       .     S
C208  C241   1.42195       .     S
C241  C208   1.42195       .     S
C209  H210   0.96884       .     S
H210  C209   0.96884       .     S
C209  H211   0.96879       .     S
H211  C209   0.96879       .     S
C209  C212   1.53207       .     S
C212  C209   1.53207       .     S
C212  H213   0.96953       .     S
H213  C212   0.96953       .     S
C212  H214   0.97038       .     S
H214  C212   0.97038       .     S
C215  H216   0.96886       .     S
H216  C215   0.96886       .     S
C215  H217   0.97047       .     S
H217  C215   0.97047       .     S
C215  C218   1.50198       .     S
C218  C215   1.50198       .     S
C218  H219   0.97010       .     S
H219  C218   0.97010       .     S
C218  H220   0.96929       .     S
H220  C218   0.96929       .     S
C221  C222   1.36038       .     S
C222  C221   1.36038       .     S
C221  C228   1.42694       .     S
C228  C221   1.42694       .     S
C222  H223   0.92927       .     S
H223  C222   0.92927       .     S
C222  C224   1.40196       .     S
C224  C222   1.40196       .     S
C224  C225   1.41143       .     S
C225  C224   1.41143       .     S
C224  C277   1.50169       .     S
C277  C224   1.50169       .     S
C225  C226   1.41907       .     S
C226  C225   1.41907       .     S
C225  C255   1.50185       .     S
C255  C225   1.50185       .     S
C226  H227   0.93037       .     S
H227  C226   0.93037       .     S
C226  C228   1.38654       .     S
C228  C226   1.38654       .     S
C229  H230   0.97014       .     S
H230  C229   0.97014       .     S
C229  H231   0.97016       .     S
H231  C229   0.97016       .     S
C229  C232   1.50683       .     S
C232  C229   1.50683       .     S
C232  H233   0.96996       .     S
H233  C232   0.96996       .     S
C232  H234   0.97109       .     S
H234  C232   0.97109       .     S
C235  H236   0.97033       .     S
H236  C235   0.97033       .     S
C235  H237   0.97119       .     S
H237  C235   0.97119       .     S
C235  C238   1.48961       .     S
C238  C235   1.48961       .     S
C238  H239   0.97022       .     S
H239  C238   0.97022       .     S
C238  H240   0.96960       .     S
H240  C238   0.96960       .     S
C241  C242   1.38620       .     S
C242  C241   1.38620       .     S
C242  H243   0.93066       .     S
H243  C242   0.93066       .     S
C244  C245   1.36969       .     S
C245  C244   1.36969       .     S
C244  C252   1.36094       .     S
C252  C244   1.36094       .     S
C245  H246   0.92929       .     S
H246  C245   0.92929       .     S
C245  C247   1.38984       .     S
C247  C245   1.38984       .     S
C247  H248   0.93018       .     S
H248  C247   0.93018       .     S
C247  C249   1.36329       .     S
C249  C247   1.36329       .     S
C249  C250   1.35812       .     S
C250  C249   1.35812       .     S
C249  C254   1.51588   1_566     S
C254  C249   1.51588   1_544     S
C250  H251   0.93095   1_556     S
H251  C250   0.93095   1_554     S
C250  C252   1.36970       .     S
C252  C250   1.36970       .     S
C252  H253   0.92977       .     S
H253  C252   0.92977       .     S
C255  C256   1.39358       .     S
C256  C255   1.39358       .     S
C255  C263   1.41178       .     S
C263  C255   1.41178       .     S
C256  H257   0.92902       .     S
H257  C256   0.92902       .     S
C256  C258   1.39025       .     S
C258  C256   1.39025       .     S
C258  H259   0.92918       .     S
H259  C258   0.92918       .     S
C258  C260   1.37715       .     S
C260  C258   1.37715       .     S
C260  C261   1.40080       .     S
C261  C260   1.40080       .     S
C260  C265   1.47401       .     S
C265  C260   1.47401       .     S
C261  H262   0.92962       .     S
H262  C261   0.92962       .     S
C261  C263   1.35858       .     S
C263  C261   1.35858       .     S
C263  H264   0.92998       .     S
H264  C263   0.92998       .     S
C266  C267   1.34708       .     S
C267  C266   1.34708       .     S
C266  C274   1.41447       .     S
C274  C266   1.41447       .     S
C267  H268   0.92947       .     S
H268  C267   0.92947       .     S
C267  C269   1.40085       .     S
C269  C267   1.40085       .     S
C269  H270   0.93118       .     S
H270  C269   0.93118       .     S
C269  C271   1.37267       .     S
C271  C269   1.37267       .     S
C271  C272   1.39734       .     S
C272  C271   1.39734       .     S
C271  C276   1.49826       .     S
C276  C271   1.49826       .     S
C272  H273   0.92939   1_455     S
H273  C272   0.92939   1_655     S
C272  C274   1.36714       .     S
C274  C272   1.36714       .     S
C274  H275   0.92934       .     S
H275  C274   0.92934       .     S
C277  C278   1.35747       .     S
C278  C277   1.35747       .     S
C277  C285   1.39574       .     S
C285  C277   1.39574       .     S
C278  H279   0.92951       .     S
H279  C278   0.92951       .     S
C278  C280   1.37597       .     S
C280  C278   1.37597       .     S
C280  H281   0.92980       .     S
H281  C280   0.92980       .     S
C280  C282   1.37440       .     S
C282  C280   1.37440       .     S
C282  C283   1.36485       .     S
C283  C282   1.36485       .     S
C282  C287   1.49875       .     S
C287  C282   1.49875       .     S
C283  H284   0.92865       .     S
H284  C283   0.92865       .     S
C283  C285   1.36373       .     S
C285  C283   1.36373       .     S
C285  H286   0.92972       .     S
H286  C285   0.92972       .     S
O288  C290   1.22062       .     S
C290  O288   1.22062       .     S
N289  C290   1.35848       .     S
C290  N289   1.35848       .     S
N289  C292   1.44015       .     S
C292  N289   1.44015       .     S
N289  C296   1.40815       .     S
C296  N289   1.40815       .     S
C290  H291   0.92910       .     S
H291  C290   0.92910       .     S
C292  H293   0.95784       .     S
H293  C292   0.95784       .     S
C292  H294   0.96198       .     S
H294  C292   0.96198       .     S
C292  H295   0.95905       .     S
H295  C292   0.95905       .     S
C296  H297   0.96046       .     S
H297  C296   0.96046       .     S
C296  H298   0.95889       .     S
H298  C296   0.95889       .     S
C296  H299   0.96029       .     S
H299  C296   0.96029       .     S
O300  C302   1.06545       .     S
C302  O300   1.06545       .     S
N301  C302   1.21778       .     S
C302  N301   1.21778       .     S
N301  C304   1.37454       .     S
C304  N301   1.37454       .     S
N301  C308   1.51419       .     S
C308  N301   1.51419       .     S
C302  H303   0.92951       .     S
H303  C302   0.92951       .     S
C304  H305   0.95987       .     S
H305  C304   0.95987       .     S
C304  H306   0.96068       .     S
H306  C304   0.96068       .     S
C304  H307   0.95940       .     S
H307  C304   0.95940       .     S
C308  H309   0.95471       .     S
H309  C308   0.95471       .     S
C308  H310   0.95919       .     S
H310  C308   0.95919       .     S
C308  H311   0.96544       .     S
H311  C308   0.96544       .     S
Na312 O313   2.25757       .     S
O313  Na312  2.25757       .     S
Na312 O325   2.69099       .     S
O325  Na312  2.69099       .     S
Na312 O326   2.65403       .     S
O326  Na312  2.65403       .     S
Na312 O327   2.66179       .     S
O327  Na312  2.66179       .     S
Na312 O328   2.57537       .     S
O328  Na312  2.57537       .     S
Na312 O329   2.72117       .     S
O329  Na312  2.72117       .     S
Na312 O426   2.29957       .     S
O426  Na312  2.29957       .     S
O313  C315   1.24627       .     S
C315  O313   1.24627       .     S
N314  C315   1.32706       .     S
C315  N314   1.32706       .     S
N314  C317   1.42685       .     S
C317  N314   1.42685       .     S
N314  C321   1.42692       .     S
C321  N314   1.42692       .     S
C315  H316   0.93166       .     S
H316  C315   0.93166       .     S
C317  H318   0.96124       .     S
H318  C317   0.96124       .     S
C317  H319   0.96106       .     S
H319  C317   0.96106       .     S
C317  H320   0.95738       .     S
H320  C317   0.95738       .     S
C321  H322   0.96083       .     S
H322  C321   0.96083       .     S
C321  H323   0.95924       .     S
H323  C321   0.95924       .     S
C321  H324   0.95963       .     S
H324  C321   0.95963       .     S
O325  C346   1.38596       .     S
C346  O325   1.38596       .     S
O325  C347   1.45813       .     S
C347  O325   1.45813       .     S
O326  C350   1.44165       .     S
C350  O326   1.44165       .     S
O326  C353   1.41610       .     S
C353  O326   1.41610       .     S
O327  C356   1.44615   1_545     S
C356  O327   1.44615   1_565     S
O327  C359   1.35376   1_545     S
C359  O327   1.35376   1_565     S
O328  C366   1.38750   1_545     S
C366  O328   1.38750   1_565     S
O328  C367   1.42808       .     S
C367  O328   1.42808       .     S
O329  C370   1.39782       .     S
C370  O329   1.39782       .     S
O329  C373   1.44680       .     S
C373  O329   1.44680       .     S
O330  C376   1.43121       .     S
C376  O330   1.43121       .     S
O330  C379   1.36138       .     S
C379  O330   1.36138       .     S
O331  C392   1.24310       .     S
C392  O331   1.24310       .     S
O332  C392   1.24386       .     S
C392  O332   1.24386       .     S
O333  C403   1.20809       .     S
C403  O333   1.20809       .     S
O334  H335   0.82070       .     S
H335  O334   0.82070       .     S
O334  C403   1.32040       .     S
C403  O334   1.32040       .     S
O336  C414   1.22216       .     S
C414  O336   1.22216       .     S
O337  H338   0.81887       .     S
H338  O337   0.81887       .     S
O337  C414   1.30857       .     S
C414  O337   1.30857       .     S
O339  H340   0.82000       .     S
H340  O339   0.82000       .     S
O339  C425   1.30631       .     S
C425  O339   1.30631       .     S
O341  C425   1.19797       .     S
C425  O341   1.19797       .     S
C342  C343   1.38340       .     S
C343  C342   1.38340       .     S
C342  C380   1.39539       .     S
C380  C342   1.39539       .     S
C342  C382   1.51531       .     S
C382  C342   1.51531       .     S
C343  C344   1.37889       .     S
C344  C343   1.37889       .     S
C343  C404   1.50160       .     S
C404  C343   1.50160       .     S
C344  H345   0.93097       .     S
H345  C344   0.93097       .     S
C344  C346   1.37280       .     S
C346  C344   1.37280       .     S
C346  C379   1.41698       .     S
C379  C346   1.41698       .     S
C347  H348   0.96891       .     S
H348  C347   0.96891       .     S
C347  H349   0.97050       .     S
H349  C347   0.97050       .     S
C347  C350   1.49389       .     S
C350  C347   1.49389       .     S
C350  H351   0.96937       .     S
H351  C350   0.96937       .     S
C350  H352   0.96949       .     S
H352  C350   0.96949       .     S
C353  H354   0.96943       .     S
H354  C353   0.96943       .     S
C353  H355   0.97072       .     S
H355  C353   0.97072       .     S
C353  C356   1.47580   1_545     S
C356  C353   1.47580   1_565     S
C356  H357   0.97033       .     S
H357  C356   0.97033       .     S
C356  H358   0.97133       .     S
H358  C356   0.97133       .     S
C359  C360   1.36953       .     S
C360  C359   1.36953       .     S
C359  C366   1.38110       .     S
C366  C359   1.38110       .     S
C360  H361   0.93043       .     S
H361  C360   0.93043       .     S
C360  C362   1.39854       .     S
C362  C360   1.39854       .     S
C362  C363   1.40030       .     S
C363  C362   1.40030       .     S
C362  C415   1.51638       .     S
C415  C362   1.51638       .     S
C363  C364   1.37516       .     S
C364  C363   1.37516       .     S
C363  C393   1.49641       .     S
C393  C363   1.49641       .     S
C364  H365   0.93095       .     S
H365  C364   0.93095       .     S
C364  C366   1.37410       .     S
C366  C364   1.37410       .     S
C367  H368   0.96941       .     S
H368  C367   0.96941       .     S
C367  H369   0.96931       .     S
H369  C367   0.96931       .     S
C367  C370   1.46834       .     S
C370  C367   1.46834       .     S
C370  H371   0.96905       .     S
H371  C370   0.96905       .     S
C370  H372   0.97054       .     S
H372  C370   0.97054       .     S
C373  H374   0.97015       .     S
H374  C373   0.97015       .     S
C373  H375   0.96907   1_556     S
H375  C373   0.96907   1_554     S
C373  C376   1.48213       .     S
C376  C373   1.48213       .     S
C376  H377   0.97068       .     S
H377  C376   0.97068       .     S
C376  H378   0.96984       .     S
H378  C376   0.96984       .     S
C379  C380   1.39336       .     S
C380  C379   1.39336       .     S
C380  H381   0.92992       .     S
H381  C380   0.92992       .     S
C382  C383   1.33905   1_655     S
C383  C382   1.33905   1_455     S
C382  C390   1.38383       .     S
C390  C382   1.38383       .     S
C383  H384   0.93048       .     S
H384  C383   0.93048       .     S
C383  C385   1.39869       .     S
C385  C383   1.39869       .     S
C385  H386   0.92992       .     S
H386  C385   0.92992       .     S
C385  C387   1.38637       .     S
C387  C385   1.38637       .     S
C387  C388   1.37581   1_455     S
C388  C387   1.37581   1_655     S
C387  C392   1.52064   1_556     S
C392  C387   1.52064   1_554     S
C388  H389   0.92995       .     S
H389  C388   0.92995       .     S
C388  C390   1.40083       .     S
C390  C388   1.40083       .     S
C390  H391   0.93023       .     S
H391  C390   0.93023       .     S
C393  C394   1.36404       .     S
C394  C393   1.36404       .     S
C393  C401   1.37515       .     S
C401  C393   1.37515       .     S
C394  H395   0.93067       .     S
H395  C394   0.93067       .     S
C394  C396   1.37276       .     S
C396  C394   1.37276       .     S
C396  H397   0.93065       .     S
H397  C396   0.93065       .     S
C396  C398   1.37516       .     S
C398  C396   1.37516       .     S
C398  C399   1.38023       .     S
C399  C398   1.38023       .     S
C398  C403   1.48575       .     S
C403  C398   1.48575       .     S
C399  H400   0.93020       .     S
H400  C399   0.93020       .     S
C399  C401   1.36327       .     S
C401  C399   1.36327       .     S
C401  H402   0.92994       .     S
H402  C401   0.92994       .     S
C404  C405   1.38403       .     S
C405  C404   1.38403       .     S
C404  C412   1.38387       .     S
C412  C404   1.38387       .     S
C405  H406   0.93049       .     S
H406  C405   0.93049       .     S
C405  C407   1.36012   1_655     S
C407  C405   1.36012   1_455     S
C407  H408   0.92945       .     S
H408  C407   0.92945       .     S
C407  C409   1.40801       .     S
C409  C407   1.40801       .     S
C409  C410   1.39807       .     S
C410  C409   1.39807       .     S
C409  C414   1.48080       .     S
C414  C409   1.48080       .     S
C410  H411   0.92921       .     S
H411  C410   0.92921       .     S
C410  C412   1.37814   1_455     S
C412  C410   1.37814   1_655     S
C412  H413   0.92925       .     S
H413  C412   0.92925       .     S
C415  C416   1.36665       .     S
C416  C415   1.36665       .     S
C415  C423   1.37277       .     S
C423  C415   1.37277       .     S
C416  H417   0.92995       .     S
H417  C416   0.92995       .     S
C416  C418   1.38483       .     S
C418  C416   1.38483       .     S
C418  H419   0.93018       .     S
H419  C418   0.93018       .     S
C418  C420   1.38068       .     S
C420  C418   1.38068       .     S
C420  C421   1.39584       .     S
C421  C420   1.39584       .     S
C420  C425   1.48799       .     S
C425  C420   1.48799       .     S
C421  H422   0.92929       .     S
H422  C421   0.92929       .     S
C421  C423   1.37864       .     S
C423  C421   1.37864       .     S
C423  H424   0.93056       .     S
H424  C423   0.93056       .     S
O426  C428   1.23887       .     S
C428  O426   1.23887       .     S
N427  C428   1.31032       .     S
C428  N427   1.31032       .     S
N427  C430   1.46523       .     S
C430  N427   1.46523       .     S
N427  C434   1.44476       .     S
C434  N427   1.44476       .     S
C428  H429   0.92980       .     S
H429  C428   0.92980       .     S
C430  H431   0.96104       .     S
H431  C430   0.96104       .     S
C430  H432   0.95964       .     S
H432  C430   0.95964       .     S
C430  H433   0.95923       .     S
H433  C430   0.95923       .     S
C434  H435   0.96013       .     S
H435  C434   0.96013       .     S
C434  H436   0.96058       .     S
H436  C434   0.96058       .     S
C434  H437   0.96037       .     S
H437  C434   0.96037       .     S
O438  C459   1.38596       .     S
C459  O438   1.38596       .     S
O438  C460   1.45813       .     S
C460  O438   1.45813       .     S
O438  Na539  2.69099       .     S
Na539 O438   2.69099       .     S
O439  C463   1.44165       .     S
C463  O439   1.44165       .     S
O439  C466   1.41611       .     S
C466  O439   1.41611       .     S
O439  Na539  2.65403       .     S
Na539 O439   2.65403       .     S
O440  C469   1.44615   1_565     S
C469  O440   1.44615   1_545     S
O440  C472   1.35376   1_565     S
C472  O440   1.35376   1_545     S
O440  Na539  2.66179       .     S
Na539 O440   2.66179       .     S
O441  C479   1.38750   1_565     S
C479  O441   1.38750   1_545     S
O441  C480   1.42808       .     S
C480  O441   1.42808       .     S
O441  Na539  2.57537       .     S
Na539 O441   2.57537       .     S
O442  C483   1.39782       .     S
C483  O442   1.39782       .     S
O442  C486   1.44680       .     S
C486  O442   1.44680       .     S
O442  Na539  2.72117       .     S
Na539 O442   2.72117       .     S
O443  C489   1.43121       .     S
C489  O443   1.43121       .     S
O443  C492   1.36138       .     S
C492  O443   1.36138       .     S
O444  C505   1.24310       .     S
C505  O444   1.24310       .     S
O445  C505   1.24385       .     S
C505  O445   1.24385       .     S
O446  C516   1.20809       .     S
C516  O446   1.20809       .     S
O447  H448   0.82070       .     S
H448  O447   0.82070       .     S
O447  C516   1.32040       .     S
C516  O447   1.32040       .     S
O449  C527   1.22216       .     S
C527  O449   1.22216       .     S
O450  H451   0.81887       .     S
H451  O450   0.81887       .     S
O450  C527   1.30857       .     S
C527  O450   1.30857       .     S
O452  H453   0.81993       .     S
H453  O452   0.81993       .     S
O452  C538   1.30631       .     S
C538  O452   1.30631       .     S
O454  C538   1.19797       .     S
C538  O454   1.19797       .     S
C455  C456   1.38340       .     S
C456  C455   1.38340       .     S
C455  C493   1.39540       .     S
C493  C455   1.39540       .     S
C455  C495   1.51531       .     S
C495  C455   1.51531       .     S
C456  C457   1.37889       .     S
C457  C456   1.37889       .     S
C456  C517   1.50160       .     S
C517  C456   1.50160       .     S
C457  H458   0.93097       .     S
H458  C457   0.93097       .     S
C457  C459   1.37281       .     S
C459  C457   1.37281       .     S
C459  C492   1.41698       .     S
C492  C459   1.41698       .     S
C460  H461   0.96891       .     S
H461  C460   0.96891       .     S
C460  H462   0.97059       .     S
H462  C460   0.97059       .     S
C460  C463   1.49389       .     S
C463  C460   1.49389       .     S
C463  H464   0.96937       .     S
H464  C463   0.96937       .     S
C463  H465   0.96949       .     S
H465  C463   0.96949       .     S
C466  H467   0.96931       .     S
H467  C466   0.96931       .     S
C466  H468   0.97098       .     S
H468  C466   0.97098       .     S
C466  C469   1.47581   1_565     S
C469  C466   1.47580   1_545     S
C469  H470   0.97033       .     S
H470  C469   0.97033       .     S
C469  H471   0.97133       .     S
H471  C469   0.97133       .     S
C472  C473   1.36953       .     S
C473  C472   1.36953       .     S
C472  C479   1.38110       .     S
C479  C472   1.38110       .     S
C473  H474   0.93043       .     S
H474  C473   0.93043       .     S
C473  C475   1.39854       .     S
C475  C473   1.39854       .     S
C475  C476   1.40030       .     S
C476  C475   1.40030       .     S
C475  C528   1.51638       .     S
C528  C475   1.51638       .     S
C476  C477   1.37516       .     S
C477  C476   1.37516       .     S
C476  C506   1.49641       .     S
C506  C476   1.49641       .     S
C477  H478   0.93069       .     S
H478  C477   0.93069       .     S
C477  C479   1.37410       .     S
C479  C477   1.37410       .     S
C480  H481   0.96941       .     S
H481  C480   0.96941       .     S
C480  H482   0.96931       .     S
H482  C480   0.96931       .     S
C480  C483   1.46834       .     S
C483  C480   1.46834       .     S
C483  H484   0.96905       .     S
H484  C483   0.96905       .     S
C483  H485   0.97054       .     S
H485  C483   0.97054       .     S
C486  H487   0.97026       .     S
H487  C486   0.97026       .     S
C486  H488   0.96907   1_554     S
H488  C486   0.96907   1_556     S
C486  C489   1.48213       .     S
C489  C486   1.48213       .     S
C489  H490   0.97068       .     S
H490  C489   0.97068       .     S
C489  H491   0.96984       .     S
H491  C489   0.96984       .     S
C492  C493   1.39336       .     S
C493  C492   1.39336       .     S
C493  H494   0.92992       .     S
H494  C493   0.92992       .     S
C495  C496   1.33905   1_455     S
C496  C495   1.33905   1_655     S
C495  C503   1.38383       .     S
C503  C495   1.38383       .     S
C496  H497   0.93047       .     S
H497  C496   0.93047       .     S
C496  C498   1.39869       .     S
C498  C496   1.39869       .     S
C498  H499   0.92992       .     S
H499  C498   0.92992       .     S
C498  C500   1.38637       .     S
C500  C498   1.38637       .     S
C500  C501   1.37581   1_655     S
C501  C500   1.37581   1_455     S
C500  C505   1.52064   1_554     S
C505  C500   1.52064   1_556     S
C501  H502   0.92995       .     S
H502  C501   0.92995       .     S
C501  C503   1.40083       .     S
C503  C501   1.40083       .     S
C503  H504   0.93023       .     S
H504  C503   0.93023       .     S
C506  C507   1.36405       .     S
C507  C506   1.36405       .     S
C506  C514   1.37515       .     S
C514  C506   1.37515       .     S
C507  H508   0.93067       .     S
H508  C507   0.93067       .     S
C507  C509   1.37276       .     S
C509  C507   1.37276       .     S
C509  H510   0.93054       .     S
H510  C509   0.93054       .     S
C509  C511   1.37516       .     S
C511  C509   1.37516       .     S
C511  C512   1.38023       .     S
C512  C511   1.38023       .     S
C511  C516   1.48575       .     S
C516  C511   1.48575       .     S
C512  H513   0.93020       .     S
H513  C512   0.93020       .     S
C512  C514   1.36328       .     S
C514  C512   1.36328       .     S
C514  H515   0.92994       .     S
H515  C514   0.92994       .     S
C517  C518   1.38403       .     S
C518  C517   1.38403       .     S
C517  C525   1.38387       .     S
C525  C517   1.38387       .     S
C518  H519   0.93049       .     S
H519  C518   0.93049       .     S
C518  C520   1.36012   1_455     S
C520  C518   1.36012   1_655     S
C520  H521   0.92944       .     S
H521  C520   0.92944       .     S
C520  C522   1.40801       .     S
C522  C520   1.40801       .     S
C522  C523   1.39807       .     S
C523  C522   1.39807       .     S
C522  C527   1.48080       .     S
C527  C522   1.48080       .     S
C523  H524   0.92921       .     S
H524  C523   0.92921       .     S
C523  C525   1.37814   1_655     S
C525  C523   1.37814   1_455     S
C525  H526   0.92925       .     S
H526  C525   0.92925       .     S
C528  C529   1.36665       .     S
C529  C528   1.36665       .     S
C528  C536   1.37277       .     S
C536  C528   1.37277       .     S
C529  H530   0.92995       .     S
H530  C529   0.92995       .     S
C529  C531   1.38483       .     S
C531  C529   1.38483       .     S
C531  H532   0.93018       .     S
H532  C531   0.93018       .     S
C531  C533   1.38068       .     S
C533  C531   1.38068       .     S
C533  C534   1.39584       .     S
C534  C533   1.39584       .     S
C533  C538   1.48799       .     S
C538  C533   1.48799       .     S
C534  H535   0.92929       .     S
H535  C534   0.92929       .     S
C534  C536   1.37864       .     S
C536  C534   1.37864       .     S
C536  H537   0.93056       .     S
H537  C536   0.93056       .     S
Na539 O540   2.25757       .     S
O540  Na539  2.25757       .     S
Na539 O552   2.29957       .     S
O552  Na539  2.29957       .     S
O540  C542   1.24627       .     S
C542  O540   1.24627       .     S
N541  C542   1.32706       .     S
C542  N541   1.32706       .     S
N541  C544   1.42685       .     S
C544  N541   1.42685       .     S
N541  C548   1.42692       .     S
C548  N541   1.42692       .     S
C542  H543   0.93166       .     S
H543  C542   0.93166       .     S
C544  H545   0.96124       .     S
H545  C544   0.96124       .     S
C544  H546   0.96106       .     S
H546  C544   0.96106       .     S
C544  H547   0.95739       .     S
H547  C544   0.95739       .     S
C548  H549   0.96083       .     S
H549  C548   0.96083       .     S
C548  H550   0.95920       .     S
H550  C548   0.95920       .     S
C548  H551   0.95964       .     S
H551  C548   0.95964       .     S
O552  C554   1.23887       .     S
C554  O552   1.23887       .     S
N553  C554   1.31032       .     S
C554  N553   1.31032       .     S
N553  C556   1.46523       .     S
C556  N553   1.46523       .     S
N553  C560   1.44476       .     S
C560  N553   1.44476       .     S
C554  H555   0.92980       .     S
H555  C554   0.92980       .     S
C556  H557   0.96117       .     S
H557  C556   0.96117       .     S
C556  H558   0.95964       .     S
H558  C556   0.95964       .     S
C556  H559   0.95923       .     S
H559  C556   0.95923       .     S
C560  H561   0.96012       .     S
H561  C560   0.96012       .     S
C560  H562   0.96059       .     S
H562  C560   0.96059       .     S
C560  H563   0.96037       .     S
H563  C560   0.96037       .     S
O564  C566   1.27740       .     S
C566  O564   1.27740       .     S
N565  C566   1.42852       .     S
C566  N565   1.42852       .     S
N565  C568   1.38225       .     S
C568  N565   1.38225       .     S
N565  C572   1.49891       .     S
C572  N565   1.49891       .     S
C566  H567   0.93015       .     S
H567  C566   0.93015       .     S
C568  H569   0.95969       .     S
H569  C568   0.95969       .     S
C568  H570   0.96005       .     S
H570  C568   0.96005       .     S
C568  H571   0.95972       .     S
H571  C568   0.95972       .     S
C572  H573   0.95935       .     S
H573  C572   0.95935       .     S
C572  H574   0.95976       .     S
H574  C572   0.95976       .     S
C572  H575   0.95974       .     S
H575  C572   0.95974       .     S
O576  C597   1.37550       .     S
C597  O576   1.37550       .     S
O576  C598   1.41633       .     S
C598  O576   1.41633       .     S
O576  Na677  2.64785       .     S
Na677 O576   2.64785       .     S
O577  C601   1.42312       .     S
C601  O577   1.42312       .     S
O577  C604   1.42317       .     S
C604  O577   1.42317       .     S
O577  Na677  2.65965       .     S
Na677 O577   2.65965       .     S
O578  C607   1.43881       .     S
C607  O578   1.43881       .     S
O578  C610   1.33973       .     S
C610  O578   1.33973       .     S
O578  Na677  2.71604       .     S
Na677 O578   2.71604       .     S
O579  C617   1.36240       .     S
C617  O579   1.36240       .     S
O579  C618   1.41736       .     S
C618  O579   1.41736       .     S
O580  C621   1.41468       .     S
C621  O580   1.41468       .     S
O580  C624   1.40926       .     S
C624  O580   1.40926       .     S
O581  C627   1.45246       .     S
C627  O581   1.45246       .     S
O581  C630   1.36335       .     S
C630  O581   1.36335       .     S
O581  Na677  2.55359       .     S
Na677 O581   2.55359       .     S
O582  H583   0.82073       .     S
H583  O582   0.82073       .     S
O582  C643   1.31318       .     S
C643  O582   1.31318       .     S
O584  C643   1.21465       .     S
C643  O584   1.21465       .     S
O585  C654   1.22793       .     S
C654  O585   1.22793       .     S
O586  C654   1.27145       .     S
C654  O586   1.27145       .     S
O587  H588   0.82032       .     S
H588  O587   0.82032       .     S
O587  C665   1.32035       .     S
C665  O587   1.32035       .     S
O589  C665   1.19132       .     S
C665  O589   1.19132       .     S
O590  C676   1.21793   1_565     S
C676  O590   1.21793   1_545     S
O591  H592   0.81991       .     S
H592  O591   0.81991       .     S
O591  C676   1.31649       .     S
C676  O591   1.31649       .     S
C593  C594   1.38167       .     S
C594  C593   1.38167       .     S
C593  C631   1.42651       .     S
C631  C593   1.42651       .     S
C593  C633   1.51309       .     S
C633  C593   1.51309       .     S
C594  C595   1.39746       .     S
C595  C594   1.39746       .     S
C594  C655   1.53607       .     S
C655  C594   1.53607       .     S
C595  H596   0.92952       .     S
H596  C595   0.92952       .     S
C595  C597   1.36267       .     S
C597  C595   1.36267       .     S
C597  C630   1.40420       .     S
C630  C597   1.40420       .     S
C598  H599   0.97089       .     S
H599  C598   0.97089       .     S
C598  H600   0.97068       .     S
H600  C598   0.97068       .     S
C598  C601   1.50160       .     S
C601  C598   1.50160       .     S
C601  H602   0.97066   1_655     S
H602  C601   0.97066   1_455     S
C601  H603   0.96952       .     S
H603  C601   0.96952       .     S
C604  H605   0.96927       .     S
H605  C604   0.96927       .     S
C604  H606   0.97065       .     S
H606  C604   0.97065       .     S
C604  C607   1.48982       .     S
C607  C604   1.48982       .     S
C607  H608   0.96877       .     S
H608  C607   0.96877       .     S
C607  H609   0.96969       .     S
H609  C607   0.96969       .     S
C610  C611   1.36712       .     S
C611  C610   1.36712       .     S
C610  C617   1.39418       .     S
C617  C610   1.39418       .     S
C611  H612   0.93115       .     S
H612  C611   0.93115       .     S
C611  C613   1.40161       .     S
C613  C611   1.40161       .     S
C613  C614   1.39886       .     S
C614  C613   1.39886       .     S
C613  C666   1.50232       .     S
C666  C613   1.50232       .     S
C614  C615   1.41975       .     S
C615  C614   1.41975       .     S
C614  C644   1.52256       .     S
C644  C614   1.52256       .     S
C615  H616   0.92906       .     S
H616  C615   0.92906       .     S
C615  C617   1.36074       .     S
C617  C615   1.36074       .     S
C618  H619   0.96955       .     S
H619  C618   0.96955       .     S
C618  H620   0.96895       .     S
H620  C618   0.96895       .     S
C618  C621   1.49324       .     S
C621  C618   1.49324       .     S
C621  H622   0.97012       .     S
H622  C621   0.97012       .     S
C621  H623   0.96968       .     S
H623  C621   0.96968       .     S
C624  H625   0.96975       .     S
H625  C624   0.96975       .     S
C624  H626   0.97030       .     S
H626  C624   0.97030       .     S
C624  C627   1.48850       .     S
C627  C624   1.48850       .     S
C627  H628   0.96902       .     S
H628  C627   0.96902       .     S
C627  H629   0.96991       .     S
H629  C627   0.96991       .     S
C630  C631   1.35483       .     S
C631  C630   1.35483       .     S
C631  H632   0.93138       .     S
H632  C631   0.93138       .     S
C633  C634   1.35323       .     S
C634  C633   1.35323       .     S
C633  C641   1.40466       .     S
C641  C633   1.40466       .     S
C634  H635   0.92998       .     S
H635  C634   0.92998       .     S
C634  C636   1.38330       .     S
C636  C634   1.38330       .     S
C636  H637   0.93089       .     S
H637  C636   0.93089       .     S
C636  C638   1.39308       .     S
C638  C636   1.39308       .     S
C638  C639   1.43488       .     S
C639  C638   1.43488       .     S
C638  C643   1.48556       .     S
C643  C638   1.48556       .     S
C639  H640   0.92934       .     S
H640  C639   0.92934       .     S
C639  C641   1.39558       .     S
C641  C639   1.39558       .     S
C641  H642   0.92894       .     S
H642  C641   0.92894       .     S
C644  C645   1.34400       .     S
C645  C644   1.34400       .     S
C644  C652   1.37575   1_545     S
C652  C644   1.37575   1_565     S
C645  H646   0.92985       .     S
H646  C645   0.92985       .     S
C645  C647   1.41155       .     S
C647  C645   1.41155       .     S
C647  H648   0.92974       .     S
H648  C647   0.92974       .     S
C647  C649   1.37748   1_545     S
C649  C647   1.37748   1_565     S
C649  C650   1.40391       .     S
C650  C649   1.40391       .     S
C649  C654   1.52353       .     S
C654  C649   1.52353       .     S
C650  H651   0.92956       .     S
H651  C650   0.92956       .     S
C650  C652   1.36821       .     S
C652  C650   1.36821       .     S
C652  H653   0.92988       .     S
H653  C652   0.92988       .     S
C655  C656   1.37506       .     S
C656  C655   1.37506       .     S
C655  C663   1.34747       .     S
C663  C655   1.34747       .     S
C656  H657   0.92988       .     S
H657  C656   0.92988       .     S
C656  C658   1.38043       .     S
C658  C656   1.38043       .     S
C658  H659   0.92983       .     S
H659  C658   0.92983       .     S
C658  C660   1.37953       .     S
C660  C658   1.37953       .     S
C660  C661   1.38319       .     S
C661  C660   1.38319       .     S
C660  C665   1.46535       .     S
C665  C660   1.46535       .     S
C661  H662   0.92949   1_655     S
H662  C661   0.92949   1_455     S
C661  C663   1.38041       .     S
C663  C661   1.38041       .     S
C663  H664   0.92949   1_655     S
H664  C663   0.92949   1_455     S
C666  C667   1.40954       .     S
C667  C666   1.40954       .     S
C666  C674   1.38562       .     S
C674  C666   1.38562       .     S
C667  H668   0.93028       .     S
H668  C667   0.93028       .     S
C667  C669   1.35059       .     S
C669  C667   1.35059       .     S
C669  H670   0.93087       .     S
H670  C669   0.93087       .     S
C669  C671   1.40511       .     S
C671  C669   1.40511       .     S
C671  C672   1.37384       .     S
C672  C671   1.37384       .     S
C671  C676   1.49452       .     S
C676  C671   1.49452       .     S
C672  H673   0.92889   1_545     S
H673  C672   0.92889   1_565     S
C672  C674   1.34717       .     S
C674  C672   1.34717       .     S
C674  H675   0.93026   1_545     S
H675  C674   0.93026   1_565     S
Na677 O678   2.21287       .     S
O678  Na677  2.21287       .     S
Na677 O690   2.31645       .     S
O690  Na677  2.31645       .     S
O678  C684   1.15208       .     S
C684  O678   1.15208       .     S
N679  C680   1.39853       .     S
C680  N679   1.39853       .     S
N679  C684   1.42553       .     S
C684  N679   1.42553       .     S
N679  C686   1.39042       .     S
C686  N679   1.39042       .     S
C680  H681   0.95921       .     S
H681  C680   0.95921       .     S
C680  H682   0.95925       .     S
H682  C680   0.95925       .     S
C680  H683   0.96124       .     S
H683  C680   0.96124       .     S
C684  H685   0.93025       .     S
H685  C684   0.93025       .     S
C686  H687   0.95984       .     S
H687  C686   0.95984       .     S
C686  H688   0.96125       .     S
H688  C686   0.96125       .     S
C686  H689   0.95972       .     S
H689  C686   0.95972       .     S
O690  C692   1.20977       .     S
C692  O690   1.20977       .     S
N691  C692   1.30818   1_455     S
C692  N691   1.30818   1_655     S
N691  C694   1.46379       .     S
C694  N691   1.46379       .     S
N691  C698   1.41972       .     S
C698  N691   1.41972       .     S
C692  H693   0.93019       .     S
H693  C692   0.93019       .     S
C694  H695   0.96104       .     S
H695  C694   0.96104       .     S
C694  H696   0.95900       .     S
H696  C694   0.95900       .     S
C694  H697   0.96034       .     S
H697  C694   0.96034       .     S
C698  H699   0.96030       .     S
H699  C698   0.96030       .     S
C698  H700   0.95988       .     S
H700  C698   0.95988       .     S
C698  H701   0.95897   1_455     S
H701  C698   0.95897   1_655     S
O702  C723   1.37550       .     S
C723  O702   1.37550       .     S
O702  C724   1.41633       .     S
C724  O702   1.41633       .     S
O702  Na803  2.64785       .     S
Na803 O702   2.64785       .     S
O703  C727   1.42312       .     S
C727  O703   1.42312       .     S
O703  C730   1.42317       .     S
C730  O703   1.42317       .     S
O703  Na803  2.65966       .     S
Na803 O703   2.65966       .     S
O704  C733   1.43881       .     S
C733  O704   1.43881       .     S
O704  C736   1.33973       .     S
C736  O704   1.33973       .     S
O704  Na803  2.71604       .     S
Na803 O704   2.71604       .     S
O705  C743   1.36240       .     S
C743  O705   1.36240       .     S
O705  C744   1.41736       .     S
C744  O705   1.41736       .     S
O706  C747   1.41468       .     S
C747  O706   1.41468       .     S
O706  C750   1.40926       .     S
C750  O706   1.40926       .     S
O707  C753   1.45246       .     S
C753  O707   1.45246       .     S
O707  C756   1.36335       .     S
C756  O707   1.36335       .     S
O707  Na803  2.55359       .     S
Na803 O707   2.55359       .     S
O708  H709   0.82073       .     S
H709  O708   0.82073       .     S
O708  C769   1.31318       .     S
C769  O708   1.31318       .     S
O710  C769   1.21465       .     S
C769  O710   1.21465       .     S
O711  C780   1.22793       .     S
C780  O711   1.22793       .     S
O712  C780   1.27145       .     S
C780  O712   1.27145       .     S
O713  H714   0.82012       .     S
H714  O713   0.82012       .     S
O713  C791   1.32035       .     S
C791  O713   1.32035       .     S
O715  C791   1.19132       .     S
C791  O715   1.19132       .     S
O716  C802   1.21793   1_545     S
C802  O716   1.21793   1_565     S
O717  H718   0.81980       .     S
H718  O717   0.81980       .     S
O717  C802   1.31649       .     S
C802  O717   1.31649       .     S
C719  C720   1.38167       .     S
C720  C719   1.38167       .     S
C719  C757   1.42651       .     S
C757  C719   1.42651       .     S
C719  C759   1.51309       .     S
C759  C719   1.51309       .     S
C720  C721   1.39746       .     S
C721  C720   1.39746       .     S
C720  C781   1.53607       .     S
C781  C720   1.53607       .     S
C721  H722   0.92952       .     S
H722  C721   0.92952       .     S
C721  C723   1.36267       .     S
C723  C721   1.36267       .     S
C723  C756   1.40420       .     S
C756  C723   1.40420       .     S
C724  H725   0.97089       .     S
H725  C724   0.97089       .     S
C724  H726   0.97063       .     S
H726  C724   0.97063       .     S
C724  C727   1.50160       .     S
C727  C724   1.50160       .     S
C727  H728   0.97073   1_455     S
H728  C727   0.97073   1_655     S
C727  H729   0.96950       .     S
H729  C727   0.96950       .     S
C730  H731   0.96927       .     S
H731  C730   0.96927       .     S
C730  H732   0.97065       .     S
H732  C730   0.97065       .     S
C730  C733   1.48982       .     S
C733  C730   1.48982       .     S
C733  H734   0.96876       .     S
H734  C733   0.96876       .     S
C733  H735   0.96969       .     S
H735  C733   0.96969       .     S
C736  C737   1.36712       .     S
C737  C736   1.36712       .     S
C736  C743   1.39418       .     S
C743  C736   1.39418       .     S
C737  H738   0.93115       .     S
H738  C737   0.93115       .     S
C737  C739   1.40161       .     S
C739  C737   1.40161       .     S
C739  C740   1.39887       .     S
C740  C739   1.39887       .     S
C739  C792   1.50232       .     S
C792  C739   1.50232       .     S
C740  C741   1.41975       .     S
C741  C740   1.41975       .     S
C740  C770   1.52256       .     S
C770  C740   1.52256       .     S
C741  H742   0.92906       .     S
H742  C741   0.92906       .     S
C741  C743   1.36074       .     S
C743  C741   1.36074       .     S
C744  H745   0.96955       .     S
H745  C744   0.96955       .     S
C744  H746   0.96895       .     S
H746  C744   0.96895       .     S
C744  C747   1.49324       .     S
C747  C744   1.49324       .     S
C747  H748   0.97012       .     S
H748  C747   0.97012       .     S
C747  H749   0.96968       .     S
H749  C747   0.96968       .     S
C750  H751   0.96975       .     S
H751  C750   0.96975       .     S
C750  H752   0.97030       .     S
H752  C750   0.97030       .     S
C750  C753   1.48850       .     S
C753  C750   1.48850       .     S
C753  H754   0.96911       .     S
H754  C753   0.96911       .     S
C753  H755   0.96991       .     S
H755  C753   0.96991       .     S
C756  C757   1.35483       .     S
C757  C756   1.35483       .     S
C757  H758   0.93138       .     S
H758  C757   0.93138       .     S
C759  C760   1.35323       .     S
C760  C759   1.35323       .     S
C759  C767   1.40466       .     S
C767  C759   1.40466       .     S
C760  H761   0.92998       .     S
H761  C760   0.92998       .     S
C760  C762   1.38330       .     S
C762  C760   1.38330       .     S
C762  H763   0.93089       .     S
H763  C762   0.93089       .     S
C762  C764   1.39308       .     S
C764  C762   1.39308       .     S
C764  C765   1.43488       .     S
C765  C764   1.43488       .     S
C764  C769   1.48555       .     S
C769  C764   1.48555       .     S
C765  H766   0.92934       .     S
H766  C765   0.92934       .     S
C765  C767   1.39558       .     S
C767  C765   1.39558       .     S
C767  H768   0.92892       .     S
H768  C767   0.92892       .     S
C770  C771   1.34400       .     S
C771  C770   1.34400       .     S
C770  C778   1.37575   1_565     S
C778  C770   1.37575   1_545     S
C771  H772   0.92976       .     S
H772  C771   0.92976       .     S
C771  C773   1.41155       .     S
C773  C771   1.41155       .     S
C773  H774   0.92974       .     S
H774  C773   0.92974       .     S
C773  C775   1.37748   1_565     S
C775  C773   1.37748   1_545     S
C775  C776   1.40391       .     S
C776  C775   1.40391       .     S
C775  C780   1.52353       .     S
C780  C775   1.52353       .     S
C776  H777   0.92956       .     S
H777  C776   0.92956       .     S
C776  C778   1.36821       .     S
C778  C776   1.36821       .     S
C778  H779   0.92988       .     S
H779  C778   0.92988       .     S
C781  C782   1.37506       .     S
C782  C781   1.37506       .     S
C781  C789   1.34747       .     S
C789  C781   1.34747       .     S
C782  H783   0.92988       .     S
H783  C782   0.92988       .     S
C782  C784   1.38043       .     S
C784  C782   1.38043       .     S
C784  H785   0.92967       .     S
H785  C784   0.92967       .     S
C784  C786   1.37953       .     S
C786  C784   1.37953       .     S
C786  C787   1.38319       .     S
C787  C786   1.38319       .     S
C786  C791   1.46535       .     S
C791  C786   1.46535       .     S
C787  H788   0.92949   1_455     S
H788  C787   0.92949   1_655     S
C787  C789   1.38041       .     S
C789  C787   1.38041       .     S
C789  H790   0.92949   1_455     S
H790  C789   0.92949   1_655     S
C792  C793   1.40954       .     S
C793  C792   1.40954       .     S
C792  C800   1.38562       .     S
C800  C792   1.38562       .     S
C793  H794   0.93028       .     S
H794  C793   0.93028       .     S
C793  C795   1.35060       .     S
C795  C793   1.35060       .     S
C795  H796   0.93087       .     S
H796  C795   0.93087       .     S
C795  C797   1.40511       .     S
C797  C795   1.40511       .     S
C797  C798   1.37383       .     S
C798  C797   1.37383       .     S
C797  C802   1.49452       .     S
C802  C797   1.49452       .     S
C798  H799   0.92889   1_565     S
H799  C798   0.92889   1_545     S
C798  C800   1.34717       .     S
C800  C798   1.34717       .     S
C800  H801   0.93026   1_565     S
H801  C800   0.93026   1_545     S
Na803 O804   2.21287       .     S
O804  Na803  2.21287       .     S
Na803 O816   2.31645       .     S
O816  Na803  2.31645       .     S
O804  C810   1.15208       .     S
C810  O804   1.15208       .     S
N805  C806   1.39853       .     S
C806  N805   1.39853       .     S
N805  C810   1.42553       .     S
C810  N805   1.42553       .     S
N805  C812   1.39042       .     S
C812  N805   1.39042       .     S
C806  H807   0.95921       .     S
H807  C806   0.95921       .     S
C806  H808   0.95925       .     S
H808  C806   0.95925       .     S
C806  H809   0.96124       .     S
H809  C806   0.96124       .     S
C810  H811   0.93025       .     S
H811  C810   0.93025       .     S
C812  H813   0.95992       .     S
H813  C812   0.95992       .     S
C812  H814   0.96134       .     S
H814  C812   0.96134       .     S
C812  H815   0.95973       .     S
H815  C812   0.95973       .     S
O816  C818   1.20977       .     S
C818  O816   1.20977       .     S
N817  C818   1.30818   1_655     S
C818  N817   1.30818   1_455     S
N817  C820   1.46379       .     S
C820  N817   1.46379       .     S
N817  C824   1.41972       .     S
C824  N817   1.41972       .     S
C818  H819   0.93019       .     S
H819  C818   0.93019       .     S
C820  H821   0.96104       .     S
H821  C820   0.96104       .     S
C820  H822   0.95900       .     S
H822  C820   0.95900       .     S
C820  H823   0.96034       .     S
H823  C820   0.96034       .     S
C824  H825   0.96030       .     S
H825  C824   0.96030       .     S
C824  H826   0.95988       .     S
H826  C824   0.95988       .     S
C824  H827   0.95896   1_655     S
H827  C824   0.95896   1_455     S
O0    H55    1.77555       .     S
H55   O0     1.77555       .     S
O445  H59    1.56119   1_556     S
H59   O445   1.56119   1_554     S
O586  H61    1.77579   1_565     S
H61   O586   1.77579   1_545     S
O24   H194   1.77555       .     S
H194  O24    1.77555       .     S
O332  H198   1.56120   1_554     S
H198  O332   1.56119   1_556     S
O712  H200   1.77579   1_545     S
H200  O712   1.77579   1_565     S
O445  H335   1.79696       .     S
H335  O445   1.79696       .     S
O203  H338   1.76246       .     S
H338  O203   1.76246       .     S
O564  H340   2.07390       .     S
H340  O564   2.07390       .     S
O332  H448   1.79695       .     S
H448  O332   1.79695       .     S
O64   H451   1.76246       .     S
H451  O64    1.76246       .     S
O12   H453   2.07375       .     S
H453  O12    2.07375       .     S
O64   H583   2.15435       .     S
H583  O64    2.15435       .     S
O300  H588   1.78135       .     S
H588  O300   1.78135       .     S
O712  H592   1.78310   1_655     S
H592  O712   1.78310   1_455     S
O203  H709   2.15435       .     S
H709  O203   2.15435       .     S
O36   H714   1.78156       .     S
H714  O36    1.78156       .     S
O586  H718   1.78319   1_455     S
H718  O586   1.78319   1_655     S
C2    O0     1.29473       .     S
O0    C2     1.29473       .     S
C2    N1     1.25985       .     S
N1    C2     1.25985       .     S
C4    N1     1.38311       .     S
N1    C4     1.38311       .     S
C8    N1     1.50481       .     S
N1    C8     1.50481       .     S
H3    C2     0.93052       .     S
C2    H3     0.93052       .     S
H5    C4     0.95992       .     S
C4    H5     0.95992       .     S
H6    C4     0.96069       .     S
C4    H6     0.96069       .     S
H7    C4     0.95941       .     S
C4    H7     0.95941       .     S
H9    C8     0.95976       .     S
C8    H9     0.95976       .     S
H10   C8     0.95990       .     S
C8    H10    0.95990       .     S
H11   C8     0.95990       .     S
C8    H11    0.95990       .     S
C14   O12    1.27740       .     S
O12   C14    1.27740       .     S
C14   N13    1.42852       .     S
N13   C14    1.42852       .     S
C16   N13    1.38225       .     S
N13   C16    1.38225       .     S
C20   N13    1.49891       .     S
N13   C20    1.49891       .     S
H15   C14    0.93015       .     S
C14   H15    0.93015       .     S
H17   C16    0.95969       .     S
C16   H17    0.95969       .     S
H18   C16    0.96005       .     S
C16   H18    0.96005       .     S
H19   C16    0.95972       .     S
C16   H19    0.95972       .     S
H21   C20    0.95935       .     S
C20   H21    0.95935       .     S
H22   C20    0.95976       .     S
C20   H22    0.95976       .     S
H23   C20    0.95974       .     S
C20   H23    0.95974       .     S
C26   O24    1.29474       .     S
O24   C26    1.29474       .     S
C26   N25    1.25985       .     S
N25   C26    1.25985       .     S
C28   N25    1.38311       .     S
N25   C28    1.38311       .     S
C32   N25    1.50481       .     S
N25   C32    1.50481       .     S
H27   C26    0.93052       .     S
C26   H27    0.93052       .     S
H29   C28    0.95992       .     S
C28   H29    0.95992       .     S
H30   C28    0.96068       .     S
C28   H30    0.96068       .     S
H31   C28    0.95941       .     S
C28   H31    0.95941       .     S
H33   C32    0.95976       .     S
C32   H33    0.95976       .     S
H34   C32    0.95990       .     S
C32   H34    0.95990       .     S
H35   C32    0.96003       .     S
C32   H35    0.96003       .     S
C38   O36    1.06545       .     S
O36   C38    1.06545       .     S
C38   N37    1.21778       .     S
N37   C38    1.21778       .     S
C40   N37    1.37454       .     S
N37   C40    1.37454       .     S
C44   N37    1.51419       .     S
N37   C44    1.51419       .     S
H39   C38    0.92951       .     S
C38   H39    0.92951       .     S
H41   C40    0.95987       .     S
C40   H41    0.95987       .     S
H42   C40    0.96053       .     S
C40   H42    0.96053       .     S
H43   C40    0.95939       .     S
C40   H43    0.95939       .     S
H45   C44    0.95474       .     S
C44   H45    0.95474       .     S
H46   C44    0.95919       .     S
C44   H46    0.95919       .     S
H47   C44    0.96544       .     S
C44   H47    0.96544       .     S
C69   O48    1.39204       .     S
O48   C69    1.39204       .     S
C70   O48    1.40845       .     S
O48   C70    1.40845       .     S
Na149 O48    2.55366       .     S
O48   Na149  2.55366       .     S
C73   O49    1.45150       .     S
O49   C73    1.45150       .     S
C76   O49    1.46813       .     S
O49   C76    1.46813       .     S
Na149 O49    2.72640       .     S
O49   Na149  2.72640       .     S
C79   O50    1.43776       .     S
O50   C79    1.43776       .     S
C82   O50    1.35890   1_455     S
O50   C82    1.35890   1_655     S
C89   O51    1.36031   1_455     S
O51   C89    1.36031   1_655     S
C90   O51    1.42077       .     S
O51   C90    1.42077       .     S
Na149 O51    2.69623       .     S
O51   Na149  2.69623       .     S
C93   O52    1.42988       .     S
O52   C93    1.42988       .     S
C96   O52    1.51849       .     S
O52   C96    1.51849       .     S
Na149 O52    2.63723       .     S
O52   Na149  2.63723       .     S
C99   O53    1.44522       .     S
O53   C99    1.44522       .     S
C102  O53    1.35638       .     S
O53   C102   1.35638       .     S
Na149 O53    2.64258       .     S
O53   Na149  2.64258       .     S
H55   O54    0.81914       .     S
O54   H55    0.81914       .     S
C115  O54    1.30001       .     S
O54   C115   1.30001       .     S
C115  O56    1.19757       .     S
O56   C115   1.19757       .     S
C126  O57    1.20489       .     S
O57   C126   1.20489       .     S
H59   O58    1.03023       .     S
O58   H59    1.03023       .     S
C126  O58    1.33845       .     S
O58   C126   1.33845       .     S
H61   O60    0.81912       .     S
O60   H61    0.81912       .     S
C137  O60    1.30974   1_655     S
O60   C137   1.30974   1_455     S
C137  O62    1.21194   1_545     S
O62   C137   1.21194   1_565     S
C148  O63    1.23991       .     S
O63   C148   1.23991       .     S
C148  O64    1.26977       .     S
O64   C148   1.26977       .     S
C66   C65    1.38356       .     S
C65   C66    1.38356       .     S
C103  C65    1.40797       .     S
C65   C103   1.40797       .     S
C105  C65    1.50319       .     S
C65   C105   1.50319       .     S
C67   C66    1.42780       .     S
C66   C67    1.42780       .     S
C127  C66    1.50704       .     S
C66   C127   1.50704       .     S
H68   C67    0.92924       .     S
C67   H68    0.92924       .     S
C69   C67    1.38596       .     S
C67   C69    1.38596       .     S
C102  C69    1.42195       .     S
C69   C102   1.42195       .     S
H71   C70    0.96884       .     S
C70   H71    0.96884       .     S
H72   C70    0.96879       .     S
C70   H72    0.96879       .     S
C73   C70    1.53207       .     S
C70   C73    1.53207       .     S
H74   C73    0.96953       .     S
C73   H74    0.96953       .     S
H75   C73    0.97039       .     S
C73   H75    0.97039       .     S
H77   C76    0.96886       .     S
C76   H77    0.96886       .     S
H78   C76    0.97047       .     S
C76   H78    0.97047       .     S
C79   C76    1.50198       .     S
C76   C79    1.50198       .     S
H80   C79    0.97011       .     S
C79   H80    0.97011       .     S
H81   C79    0.96929       .     S
C79   H81    0.96929       .     S
C83   C82    1.36038       .     S
C82   C83    1.36038       .     S
C89   C82    1.42694       .     S
C82   C89    1.42694       .     S
H84   C83    0.92927       .     S
C83   H84    0.92927       .     S
C85   C83    1.40196       .     S
C83   C85    1.40196       .     S
C86   C85    1.41143       .     S
C85   C86    1.41143       .     S
C138  C85    1.50169       .     S
C85   C138   1.50169       .     S
C87   C86    1.41906       .     S
C86   C87    1.41906       .     S
C116  C86    1.50185       .     S
C86   C116   1.50185       .     S
H88   C87    0.93036       .     S
C87   H88    0.93036       .     S
C89   C87    1.38654       .     S
C87   C89    1.38654       .     S
H91   C90    0.97014       .     S
C90   H91    0.97014       .     S
H92   C90    0.97016       .     S
C90   H92    0.97016       .     S
C93   C90    1.50683       .     S
C90   C93    1.50683       .     S
H94   C93    0.96996       .     S
C93   H94    0.96996       .     S
H95   C93    0.97109       .     S
C93   H95    0.97109       .     S
H97   C96    0.97033       .     S
C96   H97    0.97033       .     S
H98   C96    0.97119       .     S
C96   H98    0.97119       .     S
C99   C96    1.48960       .     S
C96   C99    1.48960       .     S
H100  C99    0.97022       .     S
C99   H100   0.97022       .     S
H101  C99    0.96947       .     S
C99   H101   0.96947       .     S
C103  C102   1.38619       .     S
C102  C103   1.38619       .     S
H104  C103   0.93066       .     S
C103  H104   0.93066       .     S
C106  C105   1.36969       .     S
C105  C106   1.36969       .     S
C113  C105   1.36094       .     S
C105  C113   1.36094       .     S
H107  C106   0.92929       .     S
C106  H107   0.92929       .     S
C108  C106   1.38984       .     S
C106  C108   1.38984       .     S
H109  C108   0.93020       .     S
C108  H109   0.93020       .     S
C110  C108   1.36329       .     S
C108  C110   1.36329       .     S
C111  C110   1.35812       .     S
C110  C111   1.35812       .     S
C115  C110   1.51588   1_566     S
C110  C115   1.51588   1_544     S
H112  C111   0.93095   1_556     S
C111  H112   0.93095   1_554     S
C113  C111   1.36970       .     S
C111  C113   1.36970       .     S
H114  C113   0.92977       .     S
C113  H114   0.92977       .     S
C117  C116   1.39358       .     S
C116  C117   1.39358       .     S
C124  C116   1.41178       .     S
C116  C124   1.41178       .     S
H118  C117   0.92902       .     S
C117  H118   0.92902       .     S
C119  C117   1.39025       .     S
C117  C119   1.39025       .     S
H120  C119   0.92918       .     S
C119  H120   0.92918       .     S
C121  C119   1.37715       .     S
C119  C121   1.37715       .     S
C122  C121   1.40080       .     S
C121  C122   1.40080       .     S
C126  C121   1.47401       .     S
C121  C126   1.47401       .     S
H123  C122   0.92962       .     S
C122  H123   0.92962       .     S
C124  C122   1.35858       .     S
C122  C124   1.35858       .     S
H125  C124   0.92998       .     S
C124  H125   0.92998       .     S
C128  C127   1.34708       .     S
C127  C128   1.34708       .     S
C135  C127   1.41447       .     S
C127  C135   1.41447       .     S
H129  C128   0.92947       .     S
C128  H129   0.92947       .     S
C130  C128   1.40085       .     S
C128  C130   1.40085       .     S
H131  C130   0.93118       .     S
C130  H131   0.93118       .     S
C132  C130   1.37267       .     S
C130  C132   1.37267       .     S
C133  C132   1.39734       .     S
C132  C133   1.39734       .     S
C137  C132   1.49826       .     S
C132  C137   1.49826       .     S
H134  C133   0.92939   1_455     S
C133  H134   0.92939   1_655     S
C135  C133   1.36714       .     S
C133  C135   1.36714       .     S
H136  C135   0.92934       .     S
C135  H136   0.92934       .     S
C139  C138   1.35747       .     S
C138  C139   1.35747       .     S
C146  C138   1.39574       .     S
C138  C146   1.39574       .     S
H140  C139   0.92951       .     S
C139  H140   0.92951       .     S
C141  C139   1.37597       .     S
C139  C141   1.37597       .     S
H142  C141   0.92983       .     S
C141  H142   0.92983       .     S
C143  C141   1.37440       .     S
C141  C143   1.37440       .     S
C144  C143   1.36485       .     S
C143  C144   1.36485       .     S
C148  C143   1.49875       .     S
C143  C148   1.49875       .     S
H145  C144   0.92865       .     S
C144  H145   0.92865       .     S
C146  C144   1.36373       .     S
C144  C146   1.36373       .     S
H147  C146   0.92972       .     S
C146  H147   0.92972       .     S
O150  Na149  2.26723       .     S
Na149 O150   2.26723       .     S
O162  Na149  2.27510   1_455     S
Na149 O162   2.27510   1_655     S
C152  O150   1.25327       .     S
O150  C152   1.25327       .     S
C152  N151   1.33238       .     S
N151  C152   1.33238       .     S
C154  N151   1.43464       .     S
N151  C154   1.43464       .     S
C158  N151   1.43820       .     S
N151  C158   1.43820       .     S
H153  C152   0.93029       .     S
C152  H153   0.93029       .     S
H155  C154   0.95877       .     S
C154  H155   0.95877       .     S
H156  C154   0.96017       .     S
C154  H156   0.96017       .     S
H157  C154   0.96060       .     S
C154  H157   0.96060       .     S
H159  C158   0.96074       .     S
C158  H159   0.96074       .     S
H160  C158   0.95984       .     S
C158  H160   0.95984       .     S
H161  C158   0.95908       .     S
C158  H161   0.95908       .     S
C164  O162   1.22062       .     S
O162  C164   1.22062       .     S
C164  N163   1.35848       .     S
N163  C164   1.35848       .     S
C166  N163   1.44014       .     S
N163  C166   1.44014       .     S
C170  N163   1.40815       .     S
N163  C170   1.40815       .     S
H165  C164   0.92910       .     S
C164  H165   0.92910       .     S
H167  C166   0.95785       .     S
C166  H167   0.95785       .     S
H168  C166   0.96198       .     S
C166  H168   0.96198       .     S
H169  C166   0.95921       .     S
C166  H169   0.95921       .     S
H171  C170   0.96046       .     S
C170  H171   0.96046       .     S
H172  C170   0.95889       .     S
C170  H172   0.95889       .     S
H173  C170   0.96029       .     S
C170  H173   0.96029       .     S
O175  Na174  2.26723       .     S
Na174 O175   2.26723       .     S
O187  Na174  2.55366       .     S
Na174 O187   2.55366       .     S
O188  Na174  2.72640       .     S
Na174 O188   2.72640       .     S
O190  Na174  2.69623       .     S
Na174 O190   2.69623       .     S
O191  Na174  2.63723       .     S
Na174 O191   2.63723       .     S
O192  Na174  2.64258       .     S
Na174 O192   2.64258       .     S
O288  Na174  2.27510   1_655     S
Na174 O288   2.27510   1_455     S
C177  O175   1.25327       .     S
O175  C177   1.25327       .     S
C177  N176   1.33238       .     S
N176  C177   1.33238       .     S
C179  N176   1.43464       .     S
N176  C179   1.43464       .     S
C183  N176   1.43820       .     S
N176  C183   1.43820       .     S
H178  C177   0.93029       .     S
C177  H178   0.93029       .     S
H180  C179   0.95877       .     S
C179  H180   0.95877       .     S
H181  C179   0.96017       .     S
C179  H181   0.96017       .     S
H182  C179   0.96060       .     S
C179  H182   0.96060       .     S
H184  C183   0.96074       .     S
C183  H184   0.96074       .     S
H185  C183   0.95984       .     S
C183  H185   0.95984       .     S
H186  C183   0.95908       .     S
C183  H186   0.95908       .     S
C208  O187   1.39204       .     S
O187  C208   1.39204       .     S
C209  O187   1.40845       .     S
O187  C209   1.40845       .     S
C212  O188   1.45150       .     S
O188  C212   1.45150       .     S
C215  O188   1.46813       .     S
O188  C215   1.46813       .     S
C218  O189   1.43776       .     S
O189  C218   1.43776       .     S
C221  O189   1.35890   1_655     S
O189  C221   1.35890   1_455     S
C228  O190   1.36031   1_655     S
O190  C228   1.36031   1_455     S
C229  O190   1.42077       .     S
O190  C229   1.42077       .     S
C232  O191   1.42988       .     S
O191  C232   1.42988       .     S
C235  O191   1.51849       .     S
O191  C235   1.51849       .     S
C238  O192   1.44522       .     S
O192  C238   1.44522       .     S
C241  O192   1.35638       .     S
O192  C241   1.35638       .     S
H194  O193   0.81914       .     S
O193  H194   0.81914       .     S
C254  O193   1.30000       .     S
O193  C254   1.30000       .     S
C254  O195   1.19757       .     S
O195  C254   1.19757       .     S
C265  O196   1.20489       .     S
O196  C265   1.20489       .     S
H198  O197   1.03023       .     S
O197  H198   1.03023       .     S
C265  O197   1.33845       .     S
O197  C265   1.33845       .     S
H200  O199   0.81912       .     S
O199  H200   0.81912       .     S
C276  O199   1.30975   1_455     S
O199  C276   1.30975   1_655     S
C276  O201   1.21194   1_565     S
O201  C276   1.21194   1_545     S
C287  O202   1.23991       .     S
O202  C287   1.23991       .     S
C287  O203   1.26977       .     S
O203  C287   1.26977       .     S
C205  C204   1.38355       .     S
C204  C205   1.38355       .     S
C242  C204   1.40797       .     S
C204  C242   1.40797       .     S
C244  C204   1.50319       .     S
C204  C244   1.50319       .     S
C206  C205   1.42780       .     S
C205  C206   1.42780       .     S
C266  C205   1.50704       .     S
C205  C266   1.50704       .     S
H207  C206   0.92924       .     S
C206  H207   0.92924       .     S
C208  C206   1.38596       .     S
C206  C208   1.38596       .     S
C241  C208   1.42195       .     S
C208  C241   1.42195       .     S
H210  C209   0.96884       .     S
C209  H210   0.96884       .     S
H211  C209   0.96879       .     S
C209  H211   0.96879       .     S
C212  C209   1.53207       .     S
C209  C212   1.53207       .     S
H213  C212   0.96953       .     S
C212  H213   0.96953       .     S
H214  C212   0.97038       .     S
C212  H214   0.97038       .     S
H216  C215   0.96886       .     S
C215  H216   0.96886       .     S
H217  C215   0.97047       .     S
C215  H217   0.97047       .     S
C218  C215   1.50198       .     S
C215  C218   1.50198       .     S
H219  C218   0.97010       .     S
C218  H219   0.97010       .     S
H220  C218   0.96929       .     S
C218  H220   0.96929       .     S
C222  C221   1.36038       .     S
C221  C222   1.36038       .     S
C228  C221   1.42694       .     S
C221  C228   1.42694       .     S
H223  C222   0.92927       .     S
C222  H223   0.92927       .     S
C224  C222   1.40196       .     S
C222  C224   1.40196       .     S
C225  C224   1.41143       .     S
C224  C225   1.41143       .     S
C277  C224   1.50169       .     S
C224  C277   1.50169       .     S
C226  C225   1.41907       .     S
C225  C226   1.41907       .     S
C255  C225   1.50185       .     S
C225  C255   1.50185       .     S
H227  C226   0.93037       .     S
C226  H227   0.93037       .     S
C228  C226   1.38654       .     S
C226  C228   1.38654       .     S
H230  C229   0.97014       .     S
C229  H230   0.97014       .     S
H231  C229   0.97016       .     S
C229  H231   0.97016       .     S
C232  C229   1.50683       .     S
C229  C232   1.50683       .     S
H233  C232   0.96996       .     S
C232  H233   0.96996       .     S
H234  C232   0.97109       .     S
C232  H234   0.97109       .     S
H236  C235   0.97033       .     S
C235  H236   0.97033       .     S
H237  C235   0.97119       .     S
C235  H237   0.97119       .     S
C238  C235   1.48961       .     S
C235  C238   1.48961       .     S
H239  C238   0.97022       .     S
C238  H239   0.97022       .     S
H240  C238   0.96960       .     S
C238  H240   0.96960       .     S
C242  C241   1.38620       .     S
C241  C242   1.38620       .     S
H243  C242   0.93066       .     S
C242  H243   0.93066       .     S
C245  C244   1.36969       .     S
C244  C245   1.36969       .     S
C252  C244   1.36094       .     S
C244  C252   1.36094       .     S
H246  C245   0.92929       .     S
C245  H246   0.92929       .     S
C247  C245   1.38984       .     S
C245  C247   1.38984       .     S
H248  C247   0.93018       .     S
C247  H248   0.93018       .     S
C249  C247   1.36329       .     S
C247  C249   1.36329       .     S
C250  C249   1.35812       .     S
C249  C250   1.35812       .     S
C254  C249   1.51588   1_544     S
C249  C254   1.51588   1_566     S
H251  C250   0.93095   1_554     S
C250  H251   0.93095   1_556     S
C252  C250   1.36970       .     S
C250  C252   1.36970       .     S
H253  C252   0.92977       .     S
C252  H253   0.92977       .     S
C256  C255   1.39358       .     S
C255  C256   1.39358       .     S
C263  C255   1.41178       .     S
C255  C263   1.41178       .     S
H257  C256   0.92902       .     S
C256  H257   0.92902       .     S
C258  C256   1.39025       .     S
C256  C258   1.39025       .     S
H259  C258   0.92918       .     S
C258  H259   0.92918       .     S
C260  C258   1.37715       .     S
C258  C260   1.37715       .     S
C261  C260   1.40080       .     S
C260  C261   1.40080       .     S
C265  C260   1.47401       .     S
C260  C265   1.47401       .     S
H262  C261   0.92962       .     S
C261  H262   0.92962       .     S
C263  C261   1.35858       .     S
C261  C263   1.35858       .     S
H264  C263   0.92998       .     S
C263  H264   0.92998       .     S
C267  C266   1.34708       .     S
C266  C267   1.34708       .     S
C274  C266   1.41447       .     S
C266  C274   1.41447       .     S
H268  C267   0.92947       .     S
C267  H268   0.92947       .     S
C269  C267   1.40085       .     S
C267  C269   1.40085       .     S
H270  C269   0.93118       .     S
C269  H270   0.93118       .     S
C271  C269   1.37267       .     S
C269  C271   1.37267       .     S
C272  C271   1.39734       .     S
C271  C272   1.39734       .     S
C276  C271   1.49826       .     S
C271  C276   1.49826       .     S
H273  C272   0.92939   1_655     S
C272  H273   0.92939   1_455     S
C274  C272   1.36714       .     S
C272  C274   1.36714       .     S
H275  C274   0.92934       .     S
C274  H275   0.92934       .     S
C278  C277   1.35747       .     S
C277  C278   1.35747       .     S
C285  C277   1.39574       .     S
C277  C285   1.39574       .     S
H279  C278   0.92951       .     S
C278  H279   0.92951       .     S
C280  C278   1.37597       .     S
C278  C280   1.37597       .     S
H281  C280   0.92980       .     S
C280  H281   0.92980       .     S
C282  C280   1.37440       .     S
C280  C282   1.37440       .     S
C283  C282   1.36485       .     S
C282  C283   1.36485       .     S
C287  C282   1.49875       .     S
C282  C287   1.49875       .     S
H284  C283   0.92865       .     S
C283  H284   0.92865       .     S
C285  C283   1.36373       .     S
C283  C285   1.36373       .     S
H286  C285   0.92972       .     S
C285  H286   0.92972       .     S
C290  O288   1.22062       .     S
O288  C290   1.22062       .     S
C290  N289   1.35848       .     S
N289  C290   1.35848       .     S
C292  N289   1.44015       .     S
N289  C292   1.44015       .     S
C296  N289   1.40815       .     S
N289  C296   1.40815       .     S
H291  C290   0.92910       .     S
C290  H291   0.92910       .     S
H293  C292   0.95784       .     S
C292  H293   0.95784       .     S
H294  C292   0.96198       .     S
C292  H294   0.96198       .     S
H295  C292   0.95905       .     S
C292  H295   0.95905       .     S
H297  C296   0.96046       .     S
C296  H297   0.96046       .     S
H298  C296   0.95889       .     S
C296  H298   0.95889       .     S
H299  C296   0.96029       .     S
C296  H299   0.96029       .     S
C302  O300   1.06545       .     S
O300  C302   1.06545       .     S
C302  N301   1.21778       .     S
N301  C302   1.21778       .     S
C304  N301   1.37454       .     S
N301  C304   1.37454       .     S
C308  N301   1.51419       .     S
N301  C308   1.51419       .     S
H303  C302   0.92951       .     S
C302  H303   0.92951       .     S
H305  C304   0.95987       .     S
C304  H305   0.95987       .     S
H306  C304   0.96068       .     S
C304  H306   0.96068       .     S
H307  C304   0.95940       .     S
C304  H307   0.95940       .     S
H309  C308   0.95471       .     S
C308  H309   0.95471       .     S
H310  C308   0.95919       .     S
C308  H310   0.95919       .     S
H311  C308   0.96544       .     S
C308  H311   0.96544       .     S
O313  Na312  2.25757       .     S
Na312 O313   2.25757       .     S
O325  Na312  2.69099       .     S
Na312 O325   2.69099       .     S
O326  Na312  2.65403       .     S
Na312 O326   2.65403       .     S
O327  Na312  2.66179       .     S
Na312 O327   2.66179       .     S
O328  Na312  2.57537       .     S
Na312 O328   2.57537       .     S
O329  Na312  2.72117       .     S
Na312 O329   2.72117       .     S
O426  Na312  2.29957       .     S
Na312 O426   2.29957       .     S
C315  O313   1.24627       .     S
O313  C315   1.24627       .     S
C315  N314   1.32706       .     S
N314  C315   1.32706       .     S
C317  N314   1.42685       .     S
N314  C317   1.42685       .     S
C321  N314   1.42692       .     S
N314  C321   1.42692       .     S
H316  C315   0.93166       .     S
C315  H316   0.93166       .     S
H318  C317   0.96124       .     S
C317  H318   0.96124       .     S
H319  C317   0.96106       .     S
C317  H319   0.96106       .     S
H320  C317   0.95738       .     S
C317  H320   0.95738       .     S
H322  C321   0.96083       .     S
C321  H322   0.96083       .     S
H323  C321   0.95924       .     S
C321  H323   0.95924       .     S
H324  C321   0.95963       .     S
C321  H324   0.95963       .     S
C346  O325   1.38596       .     S
O325  C346   1.38596       .     S
C347  O325   1.45813       .     S
O325  C347   1.45813       .     S
C350  O326   1.44165       .     S
O326  C350   1.44165       .     S
C353  O326   1.41610       .     S
O326  C353   1.41610       .     S
C356  O327   1.44615   1_565     S
O327  C356   1.44615   1_545     S
C359  O327   1.35376   1_565     S
O327  C359   1.35376   1_545     S
C366  O328   1.38750   1_565     S
O328  C366   1.38750   1_545     S
C367  O328   1.42808       .     S
O328  C367   1.42808       .     S
C370  O329   1.39782       .     S
O329  C370   1.39782       .     S
C373  O329   1.44680       .     S
O329  C373   1.44680       .     S
C376  O330   1.43121       .     S
O330  C376   1.43121       .     S
C379  O330   1.36138       .     S
O330  C379   1.36138       .     S
C392  O331   1.24310       .     S
O331  C392   1.24310       .     S
C392  O332   1.24386       .     S
O332  C392   1.24386       .     S
C403  O333   1.20809       .     S
O333  C403   1.20809       .     S
H335  O334   0.82070       .     S
O334  H335   0.82070       .     S
C403  O334   1.32040       .     S
O334  C403   1.32040       .     S
C414  O336   1.22216       .     S
O336  C414   1.22216       .     S
H338  O337   0.81887       .     S
O337  H338   0.81887       .     S
C414  O337   1.30857       .     S
O337  C414   1.30857       .     S
H340  O339   0.82000       .     S
O339  H340   0.82000       .     S
C425  O339   1.30631       .     S
O339  C425   1.30631       .     S
C425  O341   1.19797       .     S
O341  C425   1.19797       .     S
C343  C342   1.38340       .     S
C342  C343   1.38340       .     S
C380  C342   1.39539       .     S
C342  C380   1.39539       .     S
C382  C342   1.51531       .     S
C342  C382   1.51531       .     S
C344  C343   1.37889       .     S
C343  C344   1.37889       .     S
C404  C343   1.50160       .     S
C343  C404   1.50160       .     S
H345  C344   0.93097       .     S
C344  H345   0.93097       .     S
C346  C344   1.37280       .     S
C344  C346   1.37280       .     S
C379  C346   1.41698       .     S
C346  C379   1.41698       .     S
H348  C347   0.96891       .     S
C347  H348   0.96891       .     S
H349  C347   0.97050       .     S
C347  H349   0.97050       .     S
C350  C347   1.49389       .     S
C347  C350   1.49389       .     S
H351  C350   0.96937       .     S
C350  H351   0.96937       .     S
H352  C350   0.96949       .     S
C350  H352   0.96949       .     S
H354  C353   0.96943       .     S
C353  H354   0.96943       .     S
H355  C353   0.97072       .     S
C353  H355   0.97072       .     S
C356  C353   1.47580   1_565     S
C353  C356   1.47580   1_545     S
H357  C356   0.97033       .     S
C356  H357   0.97033       .     S
H358  C356   0.97133       .     S
C356  H358   0.97133       .     S
C360  C359   1.36953       .     S
C359  C360   1.36953       .     S
C366  C359   1.38110       .     S
C359  C366   1.38110       .     S
H361  C360   0.93043       .     S
C360  H361   0.93043       .     S
C362  C360   1.39854       .     S
C360  C362   1.39854       .     S
C363  C362   1.40030       .     S
C362  C363   1.40030       .     S
C415  C362   1.51638       .     S
C362  C415   1.51638       .     S
C364  C363   1.37516       .     S
C363  C364   1.37516       .     S
C393  C363   1.49641       .     S
C363  C393   1.49641       .     S
H365  C364   0.93095       .     S
C364  H365   0.93095       .     S
C366  C364   1.37410       .     S
C364  C366   1.37410       .     S
H368  C367   0.96941       .     S
C367  H368   0.96941       .     S
H369  C367   0.96931       .     S
C367  H369   0.96931       .     S
C370  C367   1.46834       .     S
C367  C370   1.46834       .     S
H371  C370   0.96905       .     S
C370  H371   0.96905       .     S
H372  C370   0.97054       .     S
C370  H372   0.97054       .     S
H374  C373   0.97015       .     S
C373  H374   0.97015       .     S
H375  C373   0.96907   1_554     S
C373  H375   0.96907   1_556     S
C376  C373   1.48213       .     S
C373  C376   1.48213       .     S
H377  C376   0.97068       .     S
C376  H377   0.97068       .     S
H378  C376   0.96984       .     S
C376  H378   0.96984       .     S
C380  C379   1.39336       .     S
C379  C380   1.39336       .     S
H381  C380   0.92992       .     S
C380  H381   0.92992       .     S
C383  C382   1.33905   1_455     S
C382  C383   1.33905   1_655     S
C390  C382   1.38383       .     S
C382  C390   1.38383       .     S
H384  C383   0.93048       .     S
C383  H384   0.93048       .     S
C385  C383   1.39869       .     S
C383  C385   1.39869       .     S
H386  C385   0.92992       .     S
C385  H386   0.92992       .     S
C387  C385   1.38637       .     S
C385  C387   1.38637       .     S
C388  C387   1.37581   1_655     S
C387  C388   1.37581   1_455     S
C392  C387   1.52064   1_554     S
C387  C392   1.52064   1_556     S
H389  C388   0.92995       .     S
C388  H389   0.92995       .     S
C390  C388   1.40083       .     S
C388  C390   1.40083       .     S
H391  C390   0.93023       .     S
C390  H391   0.93023       .     S
C394  C393   1.36404       .     S
C393  C394   1.36404       .     S
C401  C393   1.37515       .     S
C393  C401   1.37515       .     S
H395  C394   0.93067       .     S
C394  H395   0.93067       .     S
C396  C394   1.37276       .     S
C394  C396   1.37276       .     S
H397  C396   0.93065       .     S
C396  H397   0.93065       .     S
C398  C396   1.37516       .     S
C396  C398   1.37516       .     S
C399  C398   1.38023       .     S
C398  C399   1.38023       .     S
C403  C398   1.48575       .     S
C398  C403   1.48575       .     S
H400  C399   0.93020       .     S
C399  H400   0.93020       .     S
C401  C399   1.36327       .     S
C399  C401   1.36327       .     S
H402  C401   0.92994       .     S
C401  H402   0.92994       .     S
C405  C404   1.38403       .     S
C404  C405   1.38403       .     S
C412  C404   1.38387       .     S
C404  C412   1.38387       .     S
H406  C405   0.93049       .     S
C405  H406   0.93049       .     S
C407  C405   1.36012   1_455     S
C405  C407   1.36012   1_655     S
H408  C407   0.92945       .     S
C407  H408   0.92945       .     S
C409  C407   1.40801       .     S
C407  C409   1.40801       .     S
C410  C409   1.39807       .     S
C409  C410   1.39807       .     S
C414  C409   1.48080       .     S
C409  C414   1.48080       .     S
H411  C410   0.92921       .     S
C410  H411   0.92921       .     S
C412  C410   1.37814   1_655     S
C410  C412   1.37814   1_455     S
H413  C412   0.92925       .     S
C412  H413   0.92925       .     S
C416  C415   1.36665       .     S
C415  C416   1.36665       .     S
C423  C415   1.37277       .     S
C415  C423   1.37277       .     S
H417  C416   0.92995       .     S
C416  H417   0.92995       .     S
C418  C416   1.38483       .     S
C416  C418   1.38483       .     S
H419  C418   0.93018       .     S
C418  H419   0.93018       .     S
C420  C418   1.38068       .     S
C418  C420   1.38068       .     S
C421  C420   1.39584       .     S
C420  C421   1.39584       .     S
C425  C420   1.48799       .     S
C420  C425   1.48799       .     S
H422  C421   0.92929       .     S
C421  H422   0.92929       .     S
C423  C421   1.37864       .     S
C421  C423   1.37864       .     S
H424  C423   0.93056       .     S
C423  H424   0.93056       .     S
C428  O426   1.23887       .     S
O426  C428   1.23887       .     S
C428  N427   1.31032       .     S
N427  C428   1.31032       .     S
C430  N427   1.46523       .     S
N427  C430   1.46523       .     S
C434  N427   1.44476       .     S
N427  C434   1.44476       .     S
H429  C428   0.92980       .     S
C428  H429   0.92980       .     S
H431  C430   0.96104       .     S
C430  H431   0.96104       .     S
H432  C430   0.95964       .     S
C430  H432   0.95964       .     S
H433  C430   0.95923       .     S
C430  H433   0.95923       .     S
H435  C434   0.96013       .     S
C434  H435   0.96013       .     S
H436  C434   0.96058       .     S
C434  H436   0.96058       .     S
H437  C434   0.96037       .     S
C434  H437   0.96037       .     S
C459  O438   1.38596       .     S
O438  C459   1.38596       .     S
C460  O438   1.45813       .     S
O438  C460   1.45813       .     S
Na539 O438   2.69099       .     S
O438  Na539  2.69099       .     S
C463  O439   1.44165       .     S
O439  C463   1.44165       .     S
C466  O439   1.41611       .     S
O439  C466   1.41611       .     S
Na539 O439   2.65403       .     S
O439  Na539  2.65403       .     S
C469  O440   1.44615   1_545     S
O440  C469   1.44615   1_565     S
C472  O440   1.35376   1_545     S
O440  C472   1.35376   1_565     S
Na539 O440   2.66179       .     S
O440  Na539  2.66179       .     S
C479  O441   1.38750   1_545     S
O441  C479   1.38750   1_565     S
C480  O441   1.42808       .     S
O441  C480   1.42808       .     S
Na539 O441   2.57537       .     S
O441  Na539  2.57537       .     S
C483  O442   1.39782       .     S
O442  C483   1.39782       .     S
C486  O442   1.44680       .     S
O442  C486   1.44680       .     S
Na539 O442   2.72117       .     S
O442  Na539  2.72117       .     S
C489  O443   1.43121       .     S
O443  C489   1.43121       .     S
C492  O443   1.36138       .     S
O443  C492   1.36138       .     S
C505  O444   1.24310       .     S
O444  C505   1.24310       .     S
C505  O445   1.24385       .     S
O445  C505   1.24385       .     S
C516  O446   1.20809       .     S
O446  C516   1.20809       .     S
H448  O447   0.82070       .     S
O447  H448   0.82070       .     S
C516  O447   1.32040       .     S
O447  C516   1.32040       .     S
C527  O449   1.22216       .     S
O449  C527   1.22216       .     S
H451  O450   0.81887       .     S
O450  H451   0.81887       .     S
C527  O450   1.30857       .     S
O450  C527   1.30857       .     S
H453  O452   0.81993       .     S
O452  H453   0.81993       .     S
C538  O452   1.30631       .     S
O452  C538   1.30631       .     S
C538  O454   1.19797       .     S
O454  C538   1.19797       .     S
C456  C455   1.38340       .     S
C455  C456   1.38340       .     S
C493  C455   1.39540       .     S
C455  C493   1.39540       .     S
C495  C455   1.51531       .     S
C455  C495   1.51531       .     S
C457  C456   1.37889       .     S
C456  C457   1.37889       .     S
C517  C456   1.50160       .     S
C456  C517   1.50160       .     S
H458  C457   0.93097       .     S
C457  H458   0.93097       .     S
C459  C457   1.37281       .     S
C457  C459   1.37281       .     S
C492  C459   1.41698       .     S
C459  C492   1.41698       .     S
H461  C460   0.96891       .     S
C460  H461   0.96891       .     S
H462  C460   0.97059       .     S
C460  H462   0.97059       .     S
C463  C460   1.49389       .     S
C460  C463   1.49389       .     S
H464  C463   0.96937       .     S
C463  H464   0.96937       .     S
H465  C463   0.96949       .     S
C463  H465   0.96949       .     S
H467  C466   0.96931       .     S
C466  H467   0.96931       .     S
H468  C466   0.97098       .     S
C466  H468   0.97098       .     S
C469  C466   1.47580   1_545     S
C466  C469   1.47581   1_565     S
H470  C469   0.97033       .     S
C469  H470   0.97033       .     S
H471  C469   0.97133       .     S
C469  H471   0.97133       .     S
C473  C472   1.36953       .     S
C472  C473   1.36953       .     S
C479  C472   1.38110       .     S
C472  C479   1.38110       .     S
H474  C473   0.93043       .     S
C473  H474   0.93043       .     S
C475  C473   1.39854       .     S
C473  C475   1.39854       .     S
C476  C475   1.40030       .     S
C475  C476   1.40030       .     S
C528  C475   1.51638       .     S
C475  C528   1.51638       .     S
C477  C476   1.37516       .     S
C476  C477   1.37516       .     S
C506  C476   1.49641       .     S
C476  C506   1.49641       .     S
H478  C477   0.93069       .     S
C477  H478   0.93069       .     S
C479  C477   1.37410       .     S
C477  C479   1.37410       .     S
H481  C480   0.96941       .     S
C480  H481   0.96941       .     S
H482  C480   0.96931       .     S
C480  H482   0.96931       .     S
C483  C480   1.46834       .     S
C480  C483   1.46834       .     S
H484  C483   0.96905       .     S
C483  H484   0.96905       .     S
H485  C483   0.97054       .     S
C483  H485   0.97054       .     S
H487  C486   0.97026       .     S
C486  H487   0.97026       .     S
H488  C486   0.96907   1_556     S
C486  H488   0.96907   1_554     S
C489  C486   1.48213       .     S
C486  C489   1.48213       .     S
H490  C489   0.97068       .     S
C489  H490   0.97068       .     S
H491  C489   0.96984       .     S
C489  H491   0.96984       .     S
C493  C492   1.39336       .     S
C492  C493   1.39336       .     S
H494  C493   0.92992       .     S
C493  H494   0.92992       .     S
C496  C495   1.33905   1_655     S
C495  C496   1.33905   1_455     S
C503  C495   1.38383       .     S
C495  C503   1.38383       .     S
H497  C496   0.93047       .     S
C496  H497   0.93047       .     S
C498  C496   1.39869       .     S
C496  C498   1.39869       .     S
H499  C498   0.92992       .     S
C498  H499   0.92992       .     S
C500  C498   1.38637       .     S
C498  C500   1.38637       .     S
C501  C500   1.37581   1_455     S
C500  C501   1.37581   1_655     S
C505  C500   1.52064   1_556     S
C500  C505   1.52064   1_554     S
H502  C501   0.92995       .     S
C501  H502   0.92995       .     S
C503  C501   1.40083       .     S
C501  C503   1.40083       .     S
H504  C503   0.93023       .     S
C503  H504   0.93023       .     S
C507  C506   1.36405       .     S
C506  C507   1.36405       .     S
C514  C506   1.37515       .     S
C506  C514   1.37515       .     S
H508  C507   0.93067       .     S
C507  H508   0.93067       .     S
C509  C507   1.37276       .     S
C507  C509   1.37276       .     S
H510  C509   0.93054       .     S
C509  H510   0.93054       .     S
C511  C509   1.37516       .     S
C509  C511   1.37516       .     S
C512  C511   1.38023       .     S
C511  C512   1.38023       .     S
C516  C511   1.48575       .     S
C511  C516   1.48575       .     S
H513  C512   0.93020       .     S
C512  H513   0.93020       .     S
C514  C512   1.36328       .     S
C512  C514   1.36328       .     S
H515  C514   0.92994       .     S
C514  H515   0.92994       .     S
C518  C517   1.38403       .     S
C517  C518   1.38403       .     S
C525  C517   1.38387       .     S
C517  C525   1.38387       .     S
H519  C518   0.93049       .     S
C518  H519   0.93049       .     S
C520  C518   1.36012   1_655     S
C518  C520   1.36012   1_455     S
H521  C520   0.92944       .     S
C520  H521   0.92944       .     S
C522  C520   1.40801       .     S
C520  C522   1.40801       .     S
C523  C522   1.39807       .     S
C522  C523   1.39807       .     S
C527  C522   1.48080       .     S
C522  C527   1.48080       .     S
H524  C523   0.92921       .     S
C523  H524   0.92921       .     S
C525  C523   1.37814   1_455     S
C523  C525   1.37814   1_655     S
H526  C525   0.92925       .     S
C525  H526   0.92925       .     S
C529  C528   1.36665       .     S
C528  C529   1.36665       .     S
C536  C528   1.37277       .     S
C528  C536   1.37277       .     S
H530  C529   0.92995       .     S
C529  H530   0.92995       .     S
C531  C529   1.38483       .     S
C529  C531   1.38483       .     S
H532  C531   0.93018       .     S
C531  H532   0.93018       .     S
C533  C531   1.38068       .     S
C531  C533   1.38068       .     S
C534  C533   1.39584       .     S
C533  C534   1.39584       .     S
C538  C533   1.48799       .     S
C533  C538   1.48799       .     S
H535  C534   0.92929       .     S
C534  H535   0.92929       .     S
C536  C534   1.37864       .     S
C534  C536   1.37864       .     S
H537  C536   0.93056       .     S
C536  H537   0.93056       .     S
O540  Na539  2.25757       .     S
Na539 O540   2.25757       .     S
O552  Na539  2.29957       .     S
Na539 O552   2.29957       .     S
C542  O540   1.24627       .     S
O540  C542   1.24627       .     S
C542  N541   1.32706       .     S
N541  C542   1.32706       .     S
C544  N541   1.42685       .     S
N541  C544   1.42685       .     S
C548  N541   1.42692       .     S
N541  C548   1.42692       .     S
H543  C542   0.93166       .     S
C542  H543   0.93166       .     S
H545  C544   0.96124       .     S
C544  H545   0.96124       .     S
H546  C544   0.96106       .     S
C544  H546   0.96106       .     S
H547  C544   0.95739       .     S
C544  H547   0.95739       .     S
H549  C548   0.96083       .     S
C548  H549   0.96083       .     S
H550  C548   0.95920       .     S
C548  H550   0.95920       .     S
H551  C548   0.95964       .     S
C548  H551   0.95964       .     S
C554  O552   1.23887       .     S
O552  C554   1.23887       .     S
C554  N553   1.31032       .     S
N553  C554   1.31032       .     S
C556  N553   1.46523       .     S
N553  C556   1.46523       .     S
C560  N553   1.44476       .     S
N553  C560   1.44476       .     S
H555  C554   0.92980       .     S
C554  H555   0.92980       .     S
H557  C556   0.96117       .     S
C556  H557   0.96117       .     S
H558  C556   0.95964       .     S
C556  H558   0.95964       .     S
H559  C556   0.95923       .     S
C556  H559   0.95923       .     S
H561  C560   0.96012       .     S
C560  H561   0.96012       .     S
H562  C560   0.96059       .     S
C560  H562   0.96059       .     S
H563  C560   0.96037       .     S
C560  H563   0.96037       .     S
C566  O564   1.27740       .     S
O564  C566   1.27740       .     S
C566  N565   1.42852       .     S
N565  C566   1.42852       .     S
C568  N565   1.38225       .     S
N565  C568   1.38225       .     S
C572  N565   1.49891       .     S
N565  C572   1.49891       .     S
H567  C566   0.93015       .     S
C566  H567   0.93015       .     S
H569  C568   0.95969       .     S
C568  H569   0.95969       .     S
H570  C568   0.96005       .     S
C568  H570   0.96005       .     S
H571  C568   0.95972       .     S
C568  H571   0.95972       .     S
H573  C572   0.95935       .     S
C572  H573   0.95935       .     S
H574  C572   0.95976       .     S
C572  H574   0.95976       .     S
H575  C572   0.95974       .     S
C572  H575   0.95974       .     S
C597  O576   1.37550       .     S
O576  C597   1.37550       .     S
C598  O576   1.41633       .     S
O576  C598   1.41633       .     S
Na677 O576   2.64785       .     S
O576  Na677  2.64785       .     S
C601  O577   1.42312       .     S
O577  C601   1.42312       .     S
C604  O577   1.42317       .     S
O577  C604   1.42317       .     S
Na677 O577   2.65965       .     S
O577  Na677  2.65965       .     S
C607  O578   1.43881       .     S
O578  C607   1.43881       .     S
C610  O578   1.33973       .     S
O578  C610   1.33973       .     S
Na677 O578   2.71604       .     S
O578  Na677  2.71604       .     S
C617  O579   1.36240       .     S
O579  C617   1.36240       .     S
C618  O579   1.41736       .     S
O579  C618   1.41736       .     S
C621  O580   1.41468       .     S
O580  C621   1.41468       .     S
C624  O580   1.40926       .     S
O580  C624   1.40926       .     S
C627  O581   1.45246       .     S
O581  C627   1.45246       .     S
C630  O581   1.36335       .     S
O581  C630   1.36335       .     S
Na677 O581   2.55359       .     S
O581  Na677  2.55359       .     S
H583  O582   0.82073       .     S
O582  H583   0.82073       .     S
C643  O582   1.31318       .     S
O582  C643   1.31318       .     S
C643  O584   1.21465       .     S
O584  C643   1.21465       .     S
C654  O585   1.22793       .     S
O585  C654   1.22793       .     S
C654  O586   1.27145       .     S
O586  C654   1.27145       .     S
H588  O587   0.82032       .     S
O587  H588   0.82032       .     S
C665  O587   1.32035       .     S
O587  C665   1.32035       .     S
C665  O589   1.19132       .     S
O589  C665   1.19132       .     S
C676  O590   1.21793   1_545     S
O590  C676   1.21793   1_565     S
H592  O591   0.81991       .     S
O591  H592   0.81991       .     S
C676  O591   1.31649       .     S
O591  C676   1.31649       .     S
C594  C593   1.38167       .     S
C593  C594   1.38167       .     S
C631  C593   1.42651       .     S
C593  C631   1.42651       .     S
C633  C593   1.51309       .     S
C593  C633   1.51309       .     S
C595  C594   1.39746       .     S
C594  C595   1.39746       .     S
C655  C594   1.53607       .     S
C594  C655   1.53607       .     S
H596  C595   0.92952       .     S
C595  H596   0.92952       .     S
C597  C595   1.36267       .     S
C595  C597   1.36267       .     S
C630  C597   1.40420       .     S
C597  C630   1.40420       .     S
H599  C598   0.97089       .     S
C598  H599   0.97089       .     S
H600  C598   0.97068       .     S
C598  H600   0.97068       .     S
C601  C598   1.50160       .     S
C598  C601   1.50160       .     S
H602  C601   0.97066   1_455     S
C601  H602   0.97066   1_655     S
H603  C601   0.96952       .     S
C601  H603   0.96952       .     S
H605  C604   0.96927       .     S
C604  H605   0.96927       .     S
H606  C604   0.97065       .     S
C604  H606   0.97065       .     S
C607  C604   1.48982       .     S
C604  C607   1.48982       .     S
H608  C607   0.96877       .     S
C607  H608   0.96877       .     S
H609  C607   0.96969       .     S
C607  H609   0.96969       .     S
C611  C610   1.36712       .     S
C610  C611   1.36712       .     S
C617  C610   1.39418       .     S
C610  C617   1.39418       .     S
H612  C611   0.93115       .     S
C611  H612   0.93115       .     S
C613  C611   1.40161       .     S
C611  C613   1.40161       .     S
C614  C613   1.39886       .     S
C613  C614   1.39886       .     S
C666  C613   1.50232       .     S
C613  C666   1.50232       .     S
C615  C614   1.41975       .     S
C614  C615   1.41975       .     S
C644  C614   1.52256       .     S
C614  C644   1.52256       .     S
H616  C615   0.92906       .     S
C615  H616   0.92906       .     S
C617  C615   1.36074       .     S
C615  C617   1.36074       .     S
H619  C618   0.96955       .     S
C618  H619   0.96955       .     S
H620  C618   0.96895       .     S
C618  H620   0.96895       .     S
C621  C618   1.49324       .     S
C618  C621   1.49324       .     S
H622  C621   0.97012       .     S
C621  H622   0.97012       .     S
H623  C621   0.96968       .     S
C621  H623   0.96968       .     S
H625  C624   0.96975       .     S
C624  H625   0.96975       .     S
H626  C624   0.97030       .     S
C624  H626   0.97030       .     S
C627  C624   1.48850       .     S
C624  C627   1.48850       .     S
H628  C627   0.96902       .     S
C627  H628   0.96902       .     S
H629  C627   0.96991       .     S
C627  H629   0.96991       .     S
C631  C630   1.35483       .     S
C630  C631   1.35483       .     S
H632  C631   0.93138       .     S
C631  H632   0.93138       .     S
C634  C633   1.35323       .     S
C633  C634   1.35323       .     S
C641  C633   1.40466       .     S
C633  C641   1.40466       .     S
H635  C634   0.92998       .     S
C634  H635   0.92998       .     S
C636  C634   1.38330       .     S
C634  C636   1.38330       .     S
H637  C636   0.93089       .     S
C636  H637   0.93089       .     S
C638  C636   1.39308       .     S
C636  C638   1.39308       .     S
C639  C638   1.43488       .     S
C638  C639   1.43488       .     S
C643  C638   1.48556       .     S
C638  C643   1.48556       .     S
H640  C639   0.92934       .     S
C639  H640   0.92934       .     S
C641  C639   1.39558       .     S
C639  C641   1.39558       .     S
H642  C641   0.92894       .     S
C641  H642   0.92894       .     S
C645  C644   1.34400       .     S
C644  C645   1.34400       .     S
C652  C644   1.37575   1_565     S
C644  C652   1.37575   1_545     S
H646  C645   0.92985       .     S
C645  H646   0.92985       .     S
C647  C645   1.41155       .     S
C645  C647   1.41155       .     S
H648  C647   0.92974       .     S
C647  H648   0.92974       .     S
C649  C647   1.37748   1_565     S
C647  C649   1.37748   1_545     S
C650  C649   1.40391       .     S
C649  C650   1.40391       .     S
C654  C649   1.52353       .     S
C649  C654   1.52353       .     S
H651  C650   0.92956       .     S
C650  H651   0.92956       .     S
C652  C650   1.36821       .     S
C650  C652   1.36821       .     S
H653  C652   0.92988       .     S
C652  H653   0.92988       .     S
C656  C655   1.37506       .     S
C655  C656   1.37506       .     S
C663  C655   1.34747       .     S
C655  C663   1.34747       .     S
H657  C656   0.92988       .     S
C656  H657   0.92988       .     S
C658  C656   1.38043       .     S
C656  C658   1.38043       .     S
H659  C658   0.92983       .     S
C658  H659   0.92983       .     S
C660  C658   1.37953       .     S
C658  C660   1.37953       .     S
C661  C660   1.38319       .     S
C660  C661   1.38319       .     S
C665  C660   1.46535       .     S
C660  C665   1.46535       .     S
H662  C661   0.92949   1_455     S
C661  H662   0.92949   1_655     S
C663  C661   1.38041       .     S
C661  C663   1.38041       .     S
H664  C663   0.92949   1_455     S
C663  H664   0.92949   1_655     S
C667  C666   1.40954       .     S
C666  C667   1.40954       .     S
C674  C666   1.38562       .     S
C666  C674   1.38562       .     S
H668  C667   0.93028       .     S
C667  H668   0.93028       .     S
C669  C667   1.35059       .     S
C667  C669   1.35059       .     S
H670  C669   0.93087       .     S
C669  H670   0.93087       .     S
C671  C669   1.40511       .     S
C669  C671   1.40511       .     S
C672  C671   1.37384       .     S
C671  C672   1.37384       .     S
C676  C671   1.49452       .     S
C671  C676   1.49452       .     S
H673  C672   0.92889   1_565     S
C672  H673   0.92889   1_545     S
C674  C672   1.34717       .     S
C672  C674   1.34717       .     S
H675  C674   0.93026   1_565     S
C674  H675   0.93026   1_545     S
O678  Na677  2.21287       .     S
Na677 O678   2.21287       .     S
O690  Na677  2.31645       .     S
Na677 O690   2.31645       .     S
C684  O678   1.15208       .     S
O678  C684   1.15208       .     S
C680  N679   1.39853       .     S
N679  C680   1.39853       .     S
C684  N679   1.42553       .     S
N679  C684   1.42553       .     S
C686  N679   1.39042       .     S
N679  C686   1.39042       .     S
H681  C680   0.95921       .     S
C680  H681   0.95921       .     S
H682  C680   0.95925       .     S
C680  H682   0.95925       .     S
H683  C680   0.96124       .     S
C680  H683   0.96124       .     S
H685  C684   0.93025       .     S
C684  H685   0.93025       .     S
H687  C686   0.95984       .     S
C686  H687   0.95984       .     S
H688  C686   0.96125       .     S
C686  H688   0.96125       .     S
H689  C686   0.95972       .     S
C686  H689   0.95972       .     S
C692  O690   1.20977       .     S
O690  C692   1.20977       .     S
C692  N691   1.30818   1_655     S
N691  C692   1.30818   1_455     S
C694  N691   1.46379       .     S
N691  C694   1.46379       .     S
C698  N691   1.41972       .     S
N691  C698   1.41972       .     S
H693  C692   0.93019       .     S
C692  H693   0.93019       .     S
H695  C694   0.96104       .     S
C694  H695   0.96104       .     S
H696  C694   0.95900       .     S
C694  H696   0.95900       .     S
H697  C694   0.96034       .     S
C694  H697   0.96034       .     S
H699  C698   0.96030       .     S
C698  H699   0.96030       .     S
H700  C698   0.95988       .     S
C698  H700   0.95988       .     S
H701  C698   0.95897   1_655     S
C698  H701   0.95897   1_455     S
C723  O702   1.37550       .     S
O702  C723   1.37550       .     S
C724  O702   1.41633       .     S
O702  C724   1.41633       .     S
Na803 O702   2.64785       .     S
O702  Na803  2.64785       .     S
C727  O703   1.42312       .     S
O703  C727   1.42312       .     S
C730  O703   1.42317       .     S
O703  C730   1.42317       .     S
Na803 O703   2.65966       .     S
O703  Na803  2.65966       .     S
C733  O704   1.43881       .     S
O704  C733   1.43881       .     S
C736  O704   1.33973       .     S
O704  C736   1.33973       .     S
Na803 O704   2.71604       .     S
O704  Na803  2.71604       .     S
C743  O705   1.36240       .     S
O705  C743   1.36240       .     S
C744  O705   1.41736       .     S
O705  C744   1.41736       .     S
C747  O706   1.41468       .     S
O706  C747   1.41468       .     S
C750  O706   1.40926       .     S
O706  C750   1.40926       .     S
C753  O707   1.45246       .     S
O707  C753   1.45246       .     S
C756  O707   1.36335       .     S
O707  C756   1.36335       .     S
Na803 O707   2.55359       .     S
O707  Na803  2.55359       .     S
H709  O708   0.82073       .     S
O708  H709   0.82073       .     S
C769  O708   1.31318       .     S
O708  C769   1.31318       .     S
C769  O710   1.21465       .     S
O710  C769   1.21465       .     S
C780  O711   1.22793       .     S
O711  C780   1.22793       .     S
C780  O712   1.27145       .     S
O712  C780   1.27145       .     S
H714  O713   0.82012       .     S
O713  H714   0.82012       .     S
C791  O713   1.32035       .     S
O713  C791   1.32035       .     S
C791  O715   1.19132       .     S
O715  C791   1.19132       .     S
C802  O716   1.21793   1_565     S
O716  C802   1.21793   1_545     S
H718  O717   0.81980       .     S
O717  H718   0.81980       .     S
C802  O717   1.31649       .     S
O717  C802   1.31649       .     S
C720  C719   1.38167       .     S
C719  C720   1.38167       .     S
C757  C719   1.42651       .     S
C719  C757   1.42651       .     S
C759  C719   1.51309       .     S
C719  C759   1.51309       .     S
C721  C720   1.39746       .     S
C720  C721   1.39746       .     S
C781  C720   1.53607       .     S
C720  C781   1.53607       .     S
H722  C721   0.92952       .     S
C721  H722   0.92952       .     S
C723  C721   1.36267       .     S
C721  C723   1.36267       .     S
C756  C723   1.40420       .     S
C723  C756   1.40420       .     S
H725  C724   0.97089       .     S
C724  H725   0.97089       .     S
H726  C724   0.97063       .     S
C724  H726   0.97063       .     S
C727  C724   1.50160       .     S
C724  C727   1.50160       .     S
H728  C727   0.97073   1_655     S
C727  H728   0.97073   1_455     S
H729  C727   0.96950       .     S
C727  H729   0.96950       .     S
H731  C730   0.96927       .     S
C730  H731   0.96927       .     S
H732  C730   0.97065       .     S
C730  H732   0.97065       .     S
C733  C730   1.48982       .     S
C730  C733   1.48982       .     S
H734  C733   0.96876       .     S
C733  H734   0.96876       .     S
H735  C733   0.96969       .     S
C733  H735   0.96969       .     S
C737  C736   1.36712       .     S
C736  C737   1.36712       .     S
C743  C736   1.39418       .     S
C736  C743   1.39418       .     S
H738  C737   0.93115       .     S
C737  H738   0.93115       .     S
C739  C737   1.40161       .     S
C737  C739   1.40161       .     S
C740  C739   1.39887       .     S
C739  C740   1.39887       .     S
C792  C739   1.50232       .     S
C739  C792   1.50232       .     S
C741  C740   1.41975       .     S
C740  C741   1.41975       .     S
C770  C740   1.52256       .     S
C740  C770   1.52256       .     S
H742  C741   0.92906       .     S
C741  H742   0.92906       .     S
C743  C741   1.36074       .     S
C741  C743   1.36074       .     S
H745  C744   0.96955       .     S
C744  H745   0.96955       .     S
H746  C744   0.96895       .     S
C744  H746   0.96895       .     S
C747  C744   1.49324       .     S
C744  C747   1.49324       .     S
H748  C747   0.97012       .     S
C747  H748   0.97012       .     S
H749  C747   0.96968       .     S
C747  H749   0.96968       .     S
H751  C750   0.96975       .     S
C750  H751   0.96975       .     S
H752  C750   0.97030       .     S
C750  H752   0.97030       .     S
C753  C750   1.48850       .     S
C750  C753   1.48850       .     S
H754  C753   0.96911       .     S
C753  H754   0.96911       .     S
H755  C753   0.96991       .     S
C753  H755   0.96991       .     S
C757  C756   1.35483       .     S
C756  C757   1.35483       .     S
H758  C757   0.93138       .     S
C757  H758   0.93138       .     S
C760  C759   1.35323       .     S
C759  C760   1.35323       .     S
C767  C759   1.40466       .     S
C759  C767   1.40466       .     S
H761  C760   0.92998       .     S
C760  H761   0.92998       .     S
C762  C760   1.38330       .     S
C760  C762   1.38330       .     S
H763  C762   0.93089       .     S
C762  H763   0.93089       .     S
C764  C762   1.39308       .     S
C762  C764   1.39308       .     S
C765  C764   1.43488       .     S
C764  C765   1.43488       .     S
C769  C764   1.48555       .     S
C764  C769   1.48555       .     S
H766  C765   0.92934       .     S
C765  H766   0.92934       .     S
C767  C765   1.39558       .     S
C765  C767   1.39558       .     S
H768  C767   0.92892       .     S
C767  H768   0.92892       .     S
C771  C770   1.34400       .     S
C770  C771   1.34400       .     S
C778  C770   1.37575   1_545     S
C770  C778   1.37575   1_565     S
H772  C771   0.92976       .     S
C771  H772   0.92976       .     S
C773  C771   1.41155       .     S
C771  C773   1.41155       .     S
H774  C773   0.92974       .     S
C773  H774   0.92974       .     S
C775  C773   1.37748   1_545     S
C773  C775   1.37748   1_565     S
C776  C775   1.40391       .     S
C775  C776   1.40391       .     S
C780  C775   1.52353       .     S
C775  C780   1.52353       .     S
H777  C776   0.92956       .     S
C776  H777   0.92956       .     S
C778  C776   1.36821       .     S
C776  C778   1.36821       .     S
H779  C778   0.92988       .     S
C778  H779   0.92988       .     S
C782  C781   1.37506       .     S
C781  C782   1.37506       .     S
C789  C781   1.34747       .     S
C781  C789   1.34747       .     S
H783  C782   0.92988       .     S
C782  H783   0.92988       .     S
C784  C782   1.38043       .     S
C782  C784   1.38043       .     S
H785  C784   0.92967       .     S
C784  H785   0.92967       .     S
C786  C784   1.37953       .     S
C784  C786   1.37953       .     S
C787  C786   1.38319       .     S
C786  C787   1.38319       .     S
C791  C786   1.46535       .     S
C786  C791   1.46535       .     S
H788  C787   0.92949   1_655     S
C787  H788   0.92949   1_455     S
C789  C787   1.38041       .     S
C787  C789   1.38041       .     S
H790  C789   0.92949   1_655     S
C789  H790   0.92949   1_455     S
C793  C792   1.40954       .     S
C792  C793   1.40954       .     S
C800  C792   1.38562       .     S
C792  C800   1.38562       .     S
H794  C793   0.93028       .     S
C793  H794   0.93028       .     S
C795  C793   1.35060       .     S
C793  C795   1.35060       .     S
H796  C795   0.93087       .     S
C795  H796   0.93087       .     S
C797  C795   1.40511       .     S
C795  C797   1.40511       .     S
C798  C797   1.37383       .     S
C797  C798   1.37383       .     S
C802  C797   1.49452       .     S
C797  C802   1.49452       .     S
H799  C798   0.92889   1_545     S
C798  H799   0.92889   1_565     S
C800  C798   1.34717       .     S
C798  C800   1.34717       .     S
H801  C800   0.93026   1_545     S
C800  H801   0.93026   1_565     S
O804  Na803  2.21287       .     S
Na803 O804   2.21287       .     S
O816  Na803  2.31645       .     S
Na803 O816   2.31645       .     S
C810  O804   1.15208       .     S
O804  C810   1.15208       .     S
C806  N805   1.39853       .     S
N805  C806   1.39853       .     S
C810  N805   1.42553       .     S
N805  C810   1.42553       .     S
C812  N805   1.39042       .     S
N805  C812   1.39042       .     S
H807  C806   0.95921       .     S
C806  H807   0.95921       .     S
H808  C806   0.95925       .     S
C806  H808   0.95925       .     S
H809  C806   0.96124       .     S
C806  H809   0.96124       .     S
H811  C810   0.93025       .     S
C810  H811   0.93025       .     S
H813  C812   0.95992       .     S
C812  H813   0.95992       .     S
H814  C812   0.96134       .     S
C812  H814   0.96134       .     S
H815  C812   0.95973       .     S
C812  H815   0.95973       .     S
C818  O816   1.20977       .     S
O816  C818   1.20977       .     S
C818  N817   1.30818   1_455     S
N817  C818   1.30818   1_655     S
C820  N817   1.46379       .     S
N817  C820   1.46379       .     S
C824  N817   1.41972       .     S
N817  C824   1.41972       .     S
H819  C818   0.93019       .     S
C818  H819   0.93019       .     S
H821  C820   0.96104       .     S
C820  H821   0.96104       .     S
H822  C820   0.95900       .     S
C820  H822   0.95900       .     S
H823  C820   0.96034       .     S
C820  H823   0.96034       .     S
H825  C824   0.96030       .     S
C824  H825   0.96030       .     S
H826  C824   0.95988       .     S
C824  H826   0.95988       .     S
H827  C824   0.95896   1_455     S
C824  H827   0.95896   1_655     S
