data_I
_chemical_name_common  '/data/user2/wty/HOF/MOFDiff/mofdiff/data/test/1882ct-18c6-'
_cell_length_a 11.31130
_cell_length_b 13.42670
_cell_length_c 21.70470
_cell_angle_alpha 104.10300
_cell_angle_beta  95.26700
_cell_angle_gamma 111.04800
_space_group_name_H-M_alt      'P 1'


loop_
_space_group_symop_operation_xyz
  'x, y, z' 

loop_
_atom_site_label
_atom_site_fract_x
_atom_site_fract_y
_atom_site_fract_z
_atom_site_type_symbol
O0     0.98628  0.78755  0.20145     O
O1     0.56888  0.85612  0.27638     O
O2     0.77851  0.92116  0.35905     O
O3     0.00663   0.9188  0.32452     O
O4     0.76932   0.6958  0.12136     O
O5     0.56437  0.75034  0.15022     O
O6      0.3871  0.25402  0.13825     O
H7     0.38597  0.19779  0.11227     H
O8     0.61749  0.93912  0.92166     O
O9     0.47633  0.36144  0.07815     O
O10     0.6166   0.7695   0.7455     O
H11     0.5982  0.75529  0.77892     H
O12     0.8677   0.7494  0.49124     O
O13     0.7811  0.99234  0.87041     O
H14    0.75511   0.9243  0.85512     H
C15    0.95988   0.6824  0.16234     C
C16     0.8835   0.4647  0.07929     C
C17    0.83972    0.631  0.11927     C
O18     0.8868   0.5997  0.50835     O
H19    0.81421  0.58728  0.51625     H
C20     0.8374   0.3502   0.0337     C
C21     0.2986   0.7763  0.43805     C
C22     0.1042   0.4677  0.12099     C
C23      0.553   0.8495  0.33727     C
C24     0.3947   0.3279   0.1098     C
C25     0.0058   0.5183  0.12056     C
C26     0.6673   0.8841  0.38231     C
C27     0.5473   0.8418  0.53372     C
C28     0.8022   0.5237  0.07993     C
H29    0.72097  0.48875  0.05294     H
O30     0.5052   0.8774  0.76644     O
C31     0.4362   0.8154  0.35705     C
H32    0.36036  0.79433  0.32742     H
C33    0.54349   0.8431  0.46504     C
C34     0.7144   0.2705  0.03001     C
H35    0.65994  0.29055  0.05541     H
C36     0.7519   0.1309  0.95021     C
C37     0.2934    0.377  0.11643     C
C38     0.0406   0.6259  0.16145     C
H39    0.12105  0.66103  0.18913     H
C40     0.4288   0.8116  0.42084     C
C41     0.6614   0.8789  0.44448     C
H42    0.73768  0.89981  0.47369     H
C43     0.6722   0.1622  0.98914     C
H44    0.59035  0.11022  0.98773     H
C45     0.6514   0.6501  0.07517     C
H46    0.59396  0.58042  0.08053     H
H47    0.66815  0.63521  0.03154     H
C48      0.107   0.9485  0.28923     C
H49    0.18975  0.99084  0.31883     H
H50    0.09245  0.99424  0.26348     H
C51     0.3125   0.4749  0.10123     C
H52     0.3892  0.51119  0.08886     H
C53     0.2202   0.5206  0.10394     C
H54    0.23651  0.58743   0.0942     H
C55     0.9145   0.3192  0.99255     C
H56    0.99538  0.37152  0.99291     H
C57     0.6131   0.7863  0.55861     C
H58    0.65569  0.75111  0.53225     H
C59     0.5556   0.8354    0.662     C
C60    0.49769   0.8216  0.16491     C
H61    0.42315  0.79815  0.13074     H
H62    0.55398  0.89788  0.16879     H
C63     0.0547   0.7163  0.47116     C
C64     0.4558   0.8147  0.22742     C
H65    0.40507   0.8591  0.23793     H
H66    0.40308  0.73781  0.22417     H
C67     0.6169   0.7821  0.62162     C
H68    0.66062  0.74345  0.63703     H
C69     0.4875   0.8968  0.57512     C
H70    0.44432  0.93607  0.55993     H
C71     0.5905   0.7339  0.08623     C
H72    0.64866  0.80394  0.08166     H
H73    0.51093  0.70647  0.05468     H
C74     0.4922   0.8935  0.63799     C
H75    0.45215  0.93071  0.66492     H
C76     0.8975   0.9723  0.40574     C
H77    0.90979  0.91844  0.42558     H
H78    0.89653  0.03431  0.43952     H
C79     0.8719    0.212  0.95147     C
H80    0.92411  0.19332  0.92403     H
C81    0.21819   0.8292  0.42527     C
H82    0.24544  0.88504   0.4052     H
C83     0.1071   0.8435  0.24634     C
H84    0.17782  0.86058  0.22326     H
H85    0.11787  0.79619  0.27191     H
C86     0.7182   0.0143  0.90943     C
C87     0.0039    0.013  0.37022     C
H88    0.98847  0.06329  0.34825     H
H89    0.08608  0.05307  0.40045     H
C90     0.0984   0.8001  0.44191     C
H91    0.04622  0.83712   0.4334     H
C92     0.2545    0.692  0.46702     C
H93    0.30735  0.65581   0.4761     H
C94     0.9272   0.6912  0.49081     C
C95     0.1331   0.6609  0.48259     C
H96      0.104  0.60265  0.50077     H
C97     0.1788    0.326   0.1357     C
H98    0.16464   0.2614  0.14781     H
C99     0.0852   0.3703  0.13708     C
H100    0.0081  0.33374  0.14906     H
C101    0.5566   0.8308  0.73046     C
Na102  0.77224  0.82079  0.24109    Na
N103    0.7565    0.512  0.25367     N
O104    0.7012   0.6571  0.26083     O
C105    0.6834   0.5616   0.2341     C
H106     0.616  0.52085   0.1985     H
C107    0.7316   0.3977   0.2196     C
H108   0.72602  0.35571  0.25008     H
H109    0.8006   0.3956  0.19739     H
H110   0.65155  0.36561   0.1888     H
C111    0.8635   0.5781   0.3062     C
H112   0.87216  0.65445  0.31751     H
H113   0.94107  0.57378  0.29353     H
H114   0.84932  0.55059  0.34291     H
O115    0.8476   0.9776  0.20846     O
N116    0.8619    0.029  0.11713     N
C117    0.8915   0.9829   0.1596     C
H118   0.95158  0.95135  0.15169     H
C119    0.7636   0.0746   0.1222     C
H120   0.68554  0.02313  0.09193     H
H121   0.79309  0.14455  0.11254     H
H122   0.74696  0.08614  0.16539     H
C123    0.9152   0.0282   0.0599     C
H124   0.85262  0.97167  0.02343     H
H125   0.99123  0.01248  0.06511     H
H126   0.93751  0.09991  0.05266     H
H127   0.58554  0.48746  0.33345     H
O128    0.3303   0.4609   0.4505     O
N129    0.4133   0.5031   0.3627     N
C130    0.5392   0.5273   0.3934     C
H131   0.56353  0.46647  0.37543     H
H132   0.59789   0.5944  0.38689     H
C133    0.3935   0.5117   0.2972     C
C134    0.3163   0.4688   0.3941     C
H135   0.23272  0.44966  0.37245     H
C136     0.413   0.4825   0.4286     C
H137   0.47218  0.50151   0.4664     H
O138     0.296    0.432   0.4284     O
C139     0.374    0.504    0.323     C
H140   0.39106  0.45896  0.28607     H
H141   0.39629  0.57829  0.31974     H
N142     0.452    0.508   0.3834     N
C143     0.585    0.529   0.3762     C
H144   0.40205  0.45015  0.26729     H
H145   0.28373  0.47186  0.32429     H
H146   0.45683  0.58071  0.29526     H
H147   0.30851  0.50991  0.28596     H
H148    0.6322  0.60712  0.38287     H
H149   0.62511   0.5052  0.40769     H
H150   0.54245  0.53775    0.439     H
C151   0.77701    0.155    0.293     C
H152   0.69005  0.15043  0.28254     H
H153   0.77904  0.10999  0.32081     H
H154   0.80436   0.1295  0.25403     H
N155    0.9396   0.2808   0.3205     N
O156    0.0586   0.4632   0.3255     O
C157     0.832   0.2037   0.3346     C
H158   0.85865   0.1847  0.37184     H
H159   0.79358  0.13746  0.29813     H
H160   0.76991  0.23608  0.34334     H
C161    0.9738   0.3953   0.3446     C
H162   0.93233  0.42187  0.37574     H
N163     0.865    0.268   0.3246     N
C164     0.828    0.344   0.3671     C
H165    0.7433   0.3175  0.37307     H
C166     0.986    0.309    0.304     C
H167   0.97861  0.27071  0.25958     H
O168     0.899    0.444   0.3981     O
H169   0.00697   0.3867  0.30951     H
C170    0.0332   0.2483   0.2866     C
H171   0.07859  0.22088   0.3134     H
H172   0.09378   0.3121  0.27788     H
H173   0.98816  0.19071  0.24658     H
H174    0.0532  0.30078  0.33049     H
H175   0.59796  0.54985  0.73271     H
O176    0.6697   0.5391   0.5495     O
N177    0.5867  0.49691   0.6373     N
C178    0.4608   0.4727   0.6066     C
H179   0.43647  0.53353  0.62457     H
H180   0.40211  0.40561  0.61311     H
C181   0.60651   0.4883   0.7028     C
C182    0.6837  0.53121   0.6059     C
H183   0.76729  0.55034  0.62755     H
C184   0.58701  0.51751   0.5714     C
H185   0.52783  0.49849   0.5336     H
O186     0.704    0.568   0.5716     O
C187     0.626    0.496    0.677     C
H188   0.60894  0.54104  0.71393     H
H189   0.60371  0.42171  0.68026     H
N190   0.54801    0.492   0.6166     N
C191   0.41501  0.47101   0.6238     C
H192   0.41446  0.51254  0.66655     H
H193   0.45755  0.46225    0.561     H
H194   0.71627  0.52814  0.67571     H
H195   0.69149  0.49009  0.71404     H
H196   0.54318  0.41929  0.70474     H
H197    0.3749   0.4948  0.59231     H
H198    0.3678  0.39288  0.61713     H
C199     0.223    0.845    0.707     C
H200   0.30995  0.84957  0.71746     H
H201   0.22096  0.89001  0.67919     H
H202   0.19564   0.8705  0.74597     H
N203    0.0604   0.7192   0.6795     N
O204    0.9414   0.5368   0.6745     O
C205     0.168   0.7963   0.6654     C
H206   0.14135   0.8153  0.62815     H
H207   0.20642  0.86255  0.70186     H
H208   0.23009  0.76392  0.65666     H
C209   0.02621   0.6047   0.6554     C
H210   0.06767  0.57813  0.62426     H
N211     0.135    0.732   0.6754     N
C212     0.172    0.656   0.6329     C
H213   0.25671   0.6825  0.62693     H
C214     0.014  0.69101    0.696     C
H215    0.0214  0.72929  0.74042     H
O216   0.10101  0.55601   0.6019     O
C217    0.9668   0.7517   0.7134     C
H218   0.92142  0.77913   0.6866     H
H219   0.90623  0.68791  0.72212     H
H220   0.01184  0.80929  0.75342     H
H221    0.9468  0.69922  0.66951     H
H222   0.99303   0.6133  0.69049     H
O223   0.01372  0.21245  0.79855     O
O224   0.43113  0.14389  0.72362     O
O225   0.22149  0.07884  0.64095     O
O226   0.99337   0.0812  0.67548     O
O227   0.23069   0.3042  0.87864     O
O228   0.43563  0.24966  0.84978     O
O229    0.6129  0.74598  0.86175     O
H230   0.61404  0.80221  0.88772     H
O231   0.38251  0.06088  0.07834     O
O232   0.52367  0.63856  0.92185     O
O233   0.38341  0.23051   0.2545     O
H234    0.4018  0.24472  0.22108     H
O235    0.1323  0.25061  0.50876     O
O236    0.2189  0.00767  0.12959     O
H237   0.24489   0.0757  0.14488     H
C238   0.04012  0.31761  0.83766     C
C239    0.1165   0.5353  0.92071     C
C240   0.16028    0.369  0.88073     C
O241   0.11321   0.4003  0.49165     O
H242   0.18579  0.41272  0.48375     H
C243    0.1626   0.6498   0.9663     C
C244    0.7014  0.22371  0.56195     C
C245   0.89581   0.5323  0.87901     C
C246     0.447  0.15051  0.66273     C
C247    0.6053   0.6721   0.8902     C
C248    0.9942   0.4817  0.87944     C
C249    0.3327  0.11591  0.61769     C
C250   0.45271   0.1582  0.46628     C
C251    0.1978   0.4763  0.92007     C
H252   0.27903  0.51125  0.94706     H
O253    0.4948   0.1226  0.23356     O
C254    0.5638   0.1846  0.64295     C
H255   0.63965  0.20567  0.67258     H
C256   0.45651  0.15691  0.53496     C
C257    0.2856  0.72951  0.96999     C
H258   0.34006  0.70945  0.94459     H
C259   0.24811   0.8691  0.04979     C
C260    0.7066    0.623  0.88357     C
C261   0.95941   0.3741  0.83855     C
H262   0.87895  0.33897  0.81087     H
C263    0.5712   0.1884  0.57916     C
C264    0.3386   0.1211  0.55552     C
H265   0.26233  0.10019   0.5263     H
C266   0.32781   0.8378  0.01086     C
H267   0.40965  0.88978  0.01227     H
C268    0.3486   0.3499  0.92483     C
H269   0.40604  0.41958  0.91947     H
H270   0.33185  0.36479  0.96846     H
C271     0.893   0.0515  0.71077     C
H272   0.81026  0.00916  0.68117     H
H273   0.90756  0.00576  0.73652     H
C274   0.68751  0.52511  0.89877     C
H275    0.6108  0.48881  0.91114     H
C276    0.7798   0.4794  0.89606     C
H277   0.76349  0.41257   0.9058     H
C278    0.0855   0.6808  0.00745     C
H279   0.00463  0.62848  0.00709     H
C280    0.3869   0.2137  0.44139     C
H281   0.34431   0.2489  0.46775     H
C282    0.4444   0.1646    0.338     C
C283   0.50231  0.17841  0.83509     C
H284   0.57686  0.20185  0.86926     H
H285   0.44602  0.10212  0.83121     H
C286   0.94531  0.28371  0.52884     C
C287   0.54421   0.1853  0.77258     C
H288   0.59494   0.1409  0.76207     H
H289   0.59692  0.26219  0.77583     H
C290    0.3831   0.2179  0.37838     C
H291   0.33938  0.25655  0.36297     H
C292   0.51251  0.10321  0.42488     C
H293   0.55569  0.06394  0.44007     H
C294   0.40951  0.26611  0.91377     C
H295   0.35135  0.19606  0.91834     H
H296   0.48907  0.29353  0.94532     H
C297   0.50781   0.1065  0.36201     C
H298   0.54786  0.06929  0.33508     H
C299    0.1025   0.0277  0.59426     C
H300   0.09021  0.08156  0.57442     H
H301   0.10347   0.9657  0.56048     H
C302    0.1281    0.788  0.04853     C
H303    0.0759  0.80669  0.07597     H
C304   0.78181  0.17081  0.57473     C
H305   0.75456  0.11496   0.5948     H
C306    0.8929   0.1565  0.75366     C
H307   0.82218  0.13942  0.77674     H
H308   0.88213  0.20381  0.72809     H
C309    0.2818   0.9857  0.09057     C
C310    0.9961    0.987  0.62978     C
H311   0.01154  0.93671  0.65175     H
H312   0.91392  0.94693  0.59955     H
C313    0.9016   0.1999  0.55809     C
H314   0.95379  0.16289   0.5666     H
C315    0.7455    0.308  0.53298     C
H316   0.69265  0.34419  0.52389     H
C317   0.07281   0.3088  0.50919     C
C318   0.86691   0.3391  0.51741     C
H319     0.896  0.39736  0.49923     H
C320    0.8212  0.67401   0.8643     C
H321   0.83537   0.7386  0.85219     H
C322   0.91481   0.6297  0.86292     C
H323    0.9919  0.66626  0.85094     H
C324    0.4434   0.1692  0.26954     C
Na325  0.22776  0.17921  0.75891    Na
N326    0.2435    0.488  0.74633     N
O327    0.2988   0.3429  0.73917     O
C328    0.3166  0.43841   0.7659     C
H329     0.384  0.47915   0.8015     H
C330   0.26841   0.6023   0.7804     C
H331   0.27398   0.6443  0.74992     H
H332    0.1994   0.6044  0.80261     H
H333   0.34846  0.63439   0.8112     H
C334    0.1365   0.4219   0.6938     C
H335   0.12784  0.34555  0.68249     H
H336   0.05893  0.42622  0.70647     H
H337   0.15068  0.44941  0.65709     H
O338   0.15241  0.02241  0.79154     O
N339    0.1381    0.971  0.88287     N
C340    0.1085   0.0171   0.8404     C
H341   0.04842  0.04866  0.84831     H
C342    0.2364   0.9254   0.8778     C
H343   0.31446  0.97687  0.90807     H
H344   0.20691  0.85545  0.88746     H
H345   0.25304  0.91387  0.83461     H
C346    0.0848   0.9718   0.9401     C
H347   0.14738  0.02833  0.97657     H
H348   0.00877  0.98753  0.93489     H
H349   0.06249  0.90009  0.94734     H
loop_
_geom_bond_atom_site_label_1
_geom_bond_atom_site_label_2
_geom_bond_distance
_geom_bond_site_symmetry_2
_ccdc_geom_bond_type
H7    O231   1.79063       .     S
O231  H7     1.79063       .     S
H11   O229   1.82891       .     S
O229  H11    1.82891       .     S
H14   O229   2.40513       .     S
O229  H14    2.40513       .     S
H19   O176   1.81542       .     S
O176  H19    1.81542       .     S
H19   O186   1.80528       .     S
O186  H19    1.80528       .     S
H162  O156   1.88375   1_655     S
O156  H162   1.88375   1_455     S
H162  N155   2.01375       .     S
N155  H162   2.01375       .     S
H162  N163   1.91764       .     S
N163  H162   1.91764       .     S
H169  N155   1.44213   1_455     S
N155  H169   1.44213   1_655     S
H169  N163   1.93357   1_455     S
N163  H169   1.93357   1_655     S
H210  O204   1.88375   1_455     S
O204  H210   1.88375   1_655     S
H210  N203   2.01375       .     S
N203  H210   2.01375       .     S
H210  N211   1.91765       .     S
N211  H210   1.91765       .     S
H222  N203   1.44213   1_655     S
N203  H222   1.44213   1_455     S
H222  N211   1.93357   1_655     S
N211  H222   1.93357   1_455     S
H230  O8     1.79070       .     S
O8    H230   1.79070       .     S
H234  O6     1.82887       .     S
O6    H234   1.82887       .     S
H237  O6     2.40513       .     S
O6    H237   2.40513       .     S
H242  O128   1.81542       .     S
O128  H242   1.81542       .     S
H242  O138   1.80528       .     S
O138  H242   1.80528       .     S
O0    C15    1.36732       .     S
C15   O0     1.36732       .     S
O0    C83    1.42924   1_655     S
C83   O0     1.42924   1_455     S
O1    C23    1.36973       .     S
C23   O1     1.36973       .     S
O1    C64    1.42340       .     S
C64   O1     1.42340       .     S
O1    Na102  2.65200       .     S
Na102 O1     2.65200       .     S
O2    C26    1.36904       .     S
C26   O2     1.36904       .     S
O2    C76    1.43409       .     S
C76   O2     1.43409       .     S
O2    Na102  2.56764       .     S
Na102 O2     2.56764       .     S
O3    C48    1.42055       .     S
C48   O3     1.42055       .     S
O3    C87    1.41663   1_565     S
C87   O3     1.41663   1_545     S
O4    C17    1.37048       .     S
C17   O4     1.37048       .     S
O4    C45    1.42391       .     S
C45   O4     1.42391       .     S
O4    Na102  2.71842       .     S
Na102 O4     2.71842       .     S
O5    C60    1.41415       .     S
C60   O5     1.41415       .     S
O5    C71    1.42755       .     S
C71   O5     1.42755       .     S
O5    Na102  2.63725       .     S
Na102 O5     2.63725       .     S
O6    H7     0.82001       .     S
H7    O6     0.82001       .     S
O6    C24    1.27267       .     S
C24   O6     1.27267       .     S
O8    C86    1.32182   1_565     S
C86   O8     1.32182   1_545     S
O9    C24    1.22303       .     S
C24   O9     1.22303       .     S
O10   H11    0.82007       .     S
H11   O10    0.82007       .     S
O10   C101   1.31761       .     S
C101  O10    1.31761       .     S
O12   C94    1.19961       .     S
C94   O12    1.19961       .     S
O13   H14    0.82010       .     S
H14   O13    0.82010       .     S
O13   C86    1.20417   1_565     S
C86   O13    1.20417   1_545     S
C15   C17    1.40573       .     S
C17   C15    1.40573       .     S
C15   C38    1.37954   1_655     S
C38   C15    1.37954   1_455     S
C16   C20    1.48412       .     S
C20   C16    1.48412       .     S
C16   C25    1.40614   1_655     S
C25   C16    1.40614   1_455     S
C16   C28    1.41197       .     S
C28   C16    1.41197       .     S
C17   C28    1.37097       .     S
C28   C17    1.37097       .     S
O18   H19    0.82026       .     S
H19   O18    0.82026       .     S
O18   C94    1.31137       .     S
C94   O18    1.31137       .     S
C20   C34    1.39842       .     S
C34   C20    1.39842       .     S
C20   C55    1.39789   1_554     S
C55   C20    1.39789   1_556     S
C21   C40    1.48963       .     S
C40   C21    1.48963       .     S
C21   C81    1.38652       .     S
C81   C21    1.38652       .     S
C21   C92    1.38715       .     S
C92   C21    1.38715       .     S
C22   C25    1.49828       .     S
C25   C22    1.49828       .     S
C22   C53    1.38235       .     S
C53   C22    1.38235       .     S
C22   C99    1.38306       .     S
C99   C22    1.38306       .     S
C23   C26    1.39937       .     S
C26   C23    1.39937       .     S
C23   C31    1.38016       .     S
C31   C23    1.38016       .     S
C24   C37    1.51489       .     S
C37   C24    1.51489       .     S
C25   C38    1.39008       .     S
C38   C25    1.39008       .     S
C26   C41    1.37450       .     S
C41   C26    1.37450       .     S
C27   C33    1.49188       .     S
C33   C27    1.49188       .     S
C27   C57    1.38631       .     S
C57   C27    1.38631       .     S
C27   C69    1.39904       .     S
C69   C27    1.39904       .     S
C28   H29    0.93011       .     S
H29   C28    0.93011       .     S
O30   C101   1.20246       .     S
C101  O30    1.20246       .     S
C31   H32    0.93019       .     S
H32   C31    0.93019       .     S
C31   C40    1.40684       .     S
C40   C31    1.40684       .     S
C33   C40    1.40066       .     S
C40   C33    1.40066       .     S
C33   C41    1.40082       .     S
C41   C33    1.40082       .     S
C34   H35    0.93006       .     S
H35   C34    0.93006       .     S
C34   C43    1.38718   1_554     S
C43   C34    1.38718   1_556     S
C36   C43    1.39364       .     S
C43   C36    1.39364       .     S
C36   C79    1.39495       .     S
C79   C36    1.39495       .     S
C36   C86    1.48788       .     S
C86   C36    1.48788       .     S
C37   C51    1.37978       .     S
C51   C37    1.37978       .     S
C37   C97    1.38769       .     S
C97   C37    1.38769       .     S
C38   H39    0.92991       .     S
H39   C38    0.92991       .     S
C41   H42    0.92955       .     S
H42   C41    0.92955       .     S
C43   H44    0.93029       .     S
H44   C43    0.93029       .     S
C45   H46    0.97019       .     S
H46   C45    0.97019       .     S
C45   H47    0.96980       .     S
H47   C45    0.96980       .     S
C45   C71    1.50120       .     S
C71   C45    1.50120       .     S
C48   H49    0.97028       .     S
H49   C48    0.97028       .     S
C48   H50    0.96933       .     S
H50   C48    0.96933       .     S
C48   C83    1.48859       .     S
C83   C48    1.48859       .     S
C51   H52    0.93009       .     S
H52   C51    0.93009       .     S
C51   C53    1.38702       .     S
C53   C51    1.38702       .     S
C53   H54    0.92983       .     S
H54   C53    0.92983       .     S
C55   H56    0.93000       .     S
H56   C55    0.93000       .     S
C55   C79    1.37710       .     S
C79   C55    1.37710       .     S
C57   H58    0.93007       .     S
H58   C57    0.93007       .     S
C57   C67    1.37983       .     S
C67   C57    1.37983       .     S
C59   C67    1.38687       .     S
C67   C59    1.38687       .     S
C59   C74    1.38771       .     S
C74   C59    1.38771       .     S
C59   C101   1.50133       .     S
C101  C59    1.50133       .     S
C60   H61    0.96994       .     S
H61   C60    0.96994       .     S
C60   H62    0.97014       .     S
H62   C60    0.97014       .     S
C60   C64    1.49052       .     S
C64   C60    1.49052       .     S
C63   C90    1.38549       .     S
C90   C63    1.38549       .     S
C63   C94    1.48635   1_455     S
C94   C63    1.48635   1_655     S
C63   C95    1.38731       .     S
C95   C63    1.38731       .     S
C64   H65    0.96963       .     S
H65   C64    0.96963       .     S
C64   H66    0.97003       .     S
H66   C64    0.97003       .     S
C67   H68    0.92967       .     S
H68   C67    0.92967       .     S
C69   H70    0.93027       .     S
H70   C69    0.93027       .     S
C69   C74    1.37284       .     S
C74   C69    1.37284       .     S
C71   H72    0.96956       .     S
H72   C71    0.96956       .     S
C71   H73    0.96978       .     S
H73   C71    0.96978       .     S
C74   H75    0.93025       .     S
H75   C74    0.93025       .     S
C76   H77    0.96990       .     S
H77   C76    0.96990       .     S
C76   H78    0.97028   1_565     S
H78   C76    0.97028   1_545     S
C76   C87    1.49823   1_665     S
C87   C76    1.49823   1_445     S
C79   H80    0.92982       .     S
H80   C79    0.92982       .     S
C81   H82    0.92989       .     S
H82   C81    0.92989       .     S
C81   C90    1.37747       .     S
C90   C81    1.37747       .     S
C83   H84    0.97016       .     S
H84   C83    0.97016       .     S
C83   H85    0.97022       .     S
H85   C83    0.97022       .     S
C87   H88    0.96957   1_455     S
H88   C87    0.96957   1_655     S
C87   H89    0.96995       .     S
H89   C87    0.96995       .     S
C90   H91    0.93005       .     S
H91   C90    0.93005       .     S
C92   H93    0.93060       .     S
H93   C92    0.93060       .     S
C92   C95    1.38431       .     S
C95   C92    1.38431       .     S
C95   H96    0.93009       .     S
H96   C95    0.93009       .     S
C97   H98    0.93065       .     S
H98   C97    0.93065       .     S
C97   C99    1.38748       .     S
C99   C97    1.38748       .     S
C99   H100   0.93031       .     S
H100  C99    0.93031       .     S
Na102 O104   2.21658       .     S
O104  Na102  2.21658       .     S
Na102 O115   2.28242       .     S
O115  Na102  2.28242       .     S
N103  C105   1.33287       .     S
C105  N103   1.33287       .     S
N103  C107   1.44208       .     S
C107  N103   1.44208       .     S
N103  C111   1.42633       .     S
C111  N103   1.42633       .     S
O104  C105   1.20494       .     S
C105  O104   1.20494       .     S
C105  H106   0.92942       .     S
H106  C105   0.92942       .     S
C107  H108   0.96092       .     S
H108  C107   0.96092       .     S
C107  H109   0.95947       .     S
H109  C107   0.95947       .     S
C107  H110   0.95952       .     S
H110  C107   0.95952       .     S
C111  H112   0.95998       .     S
H112  C111   0.95998       .     S
C111  H113   0.96017       .     S
H113  C111   0.96017       .     S
C111  H114   0.95987       .     S
H114  C111   0.95987       .     S
O115  C117   1.21834       .     S
C117  O115   1.21834       .     S
N116  C117   1.30965   1_545     S
C117  N116   1.30965   1_565     S
N116  C119   1.44980       .     S
C119  N116   1.44980       .     S
N116  C123   1.42905       .     S
C123  N116   1.42905       .     S
C117  H118   0.92926       .     S
H118  C117   0.92926       .     S
C119  H120   0.96061       .     S
H120  C119   0.96061       .     S
C119  H121   0.95974       .     S
H121  C119   0.95974       .     S
C119  H122   0.95956       .     S
H122  C119   0.95956       .     S
C123  H124   0.96029   1_545     S
H124  C123   0.96029   1_565     S
C123  H125   0.95974       .     S
H125  C123   0.95974       .     S
C123  H126   0.96016       .     S
H126  C123   0.96016       .     S
H127  C143   0.96091       .     S
C143  H127   0.96091       .     S
O128  C134   1.25484       .     S
C134  O128   1.25484       .     S
O128  C136   1.06726       .     S
C136  O128   1.06726       .     S
O128  O138   0.54605       .     S
O138  O128   0.54605       .     S
N129  C130   1.40197       .     S
C130  N129   1.40197       .     S
N129  C133   1.45764       .     S
C133  N129   1.45764       .     S
N129  C134   1.34451       .     S
C134  N129   1.34451       .     S
N129  C136   1.52164       .     S
C136  N129   1.52164       .     S
N129  C139   0.93747       .     S
C139  N129   0.93747       .     S
N129  N142   0.57150       .     S
N142  N129   0.57150       .     S
N129  H145   1.47738       .     S
H145  N129   1.47738       .     S
C130  H131   0.95961       .     S
H131  C130   0.95961       .     S
C130  H132   0.96021       .     S
H132  C130   0.96021       .     S
C130  C136   1.67053       .     S
C136  C130   1.67053       .     S
C130  N142   0.91478       .     S
N142  C130   0.91478       .     S
C130  C143   0.66290       .     S
C143  C130   0.66290       .     S
C130  H148   1.28884       .     S
H148  C130   1.28884       .     S
C130  H149   1.15117       .     S
H149  C130   1.15117       .     S
C130  H150   0.96050       .     S
H150  C130   0.96050       .     S
H131  C143   0.78109       .     S
C143  H131   0.78109       .     S
H132  C143   0.80542       .     S
C143  H132   0.80542       .     S
H132  H148   0.39149       .     S
H148  H132   0.39149       .     S
C133  C139   0.63830       .     S
C139  C133   0.63830       .     S
C133  H140   0.67966       .     S
H140  C133   0.67966       .     S
C133  H141   0.89636       .     S
H141  C133   0.89636       .     S
C133  H144   0.95981       .     S
H144  C133   0.95981       .     S
C133  H146   0.95982       .     S
H146  C133   0.95982       .     S
C133  H147   0.96009       .     S
H147  C133   0.96009       .     S
C134  H135   0.93043       .     S
H135  C134   0.93043       .     S
C134  C136   1.19538       .     S
C136  C134   1.19538       .     S
C134  O138   0.99008       .     S
O138  C134   0.99008       .     S
C134  N142   1.49389       .     S
N142  C134   1.49389       .     S
C136  H137   0.92777       .     S
H137  C136   0.92777       .     S
C136  O138   1.25067       .     S
O138  C136   1.25067       .     S
C136  N142   1.18699       .     S
N142  C136   1.18699       .     S
C139  H140   0.95991       .     S
H140  C139   0.95991       .     S
C139  H141   0.95945       .     S
H141  C139   0.95945       .     S
C139  N142   1.48971       .     S
N142  C139   1.48971       .     S
C139  H145   0.96137       .     S
H145  C139   0.96137       .     S
C139  H147   1.07951       .     S
H147  C139   1.07951       .     S
H140  H144   0.43814       .     S
H144  H140   0.43814       .     S
N142  C143   1.45846       .     S
C143  N142   1.45846       .     S
N142  H150   1.38112       .     S
H150  N142   1.38112       .     S
C143  H148   0.95694       .     S
H148  C143   0.95694       .     S
C143  H149   0.96372       .     S
H149  C143   0.96372       .     S
C151  H152   0.96524       .     S
H152  C151   0.96524       .     S
C151  H153   0.95670       .     S
H153  C151   0.95670       .     S
C151  H154   0.95465       .     S
H154  C151   0.95465       .     S
C151  C157   0.97300       .     S
C157  C151   0.97300       .     S
C151  H159   0.37900       .     S
H159  C151   0.37900       .     S
C151  N163   1.43032       .     S
N163  C151   1.43032       .     S
H153  C157   1.12858       .     S
C157  H153   1.12858       .     S
H153  H159   0.68204       .     S
H159  H153   0.68204       .     S
N155  C157   1.40156       .     S
C157  N155   1.40156       .     S
N155  C161   1.38942       .     S
C161  N155   1.38942       .     S
N155  N163   0.81643       .     S
N163  N155   0.81643       .     S
N155  C166   0.71058       .     S
C166  N155   0.71058       .     S
N155  H167   1.42273       .     S
H167  N155   1.42273       .     S
N155  H169   1.44213   1_655     S
H169  N155   1.44213   1_455     S
N155  C170   1.47348   1_655     S
C170  N155   1.47348   1_455     S
N155  H174   1.20125   1_655     S
H174  N155   1.20125   1_455     S
O156  C161   1.24584   1_455     S
C161  O156   1.24584   1_655     S
O156  H169   0.93527       .     S
H169  O156   0.93527       .     S
C157  H158   0.95930       .     S
H158  C157   0.95930       .     S
C157  H159   0.96051       .     S
H159  C157   0.96051       .     S
C157  H160   0.96013       .     S
H160  C157   0.96013       .     S
C157  N163   0.89806       .     S
N163  C157   0.89806       .     S
H160  N163   1.15766       .     S
N163  H160   1.15766       .     S
H160  C164   1.29887       .     S
C164  H160   1.29887       .     S
C161  H162   0.93007       .     S
H162  C161   0.93007       .     S
C161  N163   1.62906       .     S
N163  C161   1.62906       .     S
C161  C164   1.71131       .     S
C164  C161   1.71131       .     S
C161  C166   1.33334       .     S
C166  C161   1.33334       .     S
C161  H169   0.88028   1_655     S
H169  C161   0.88028   1_455     S
H162  C164   1.22414       .     S
C164  H162   1.22414       .     S
H162  O168   0.71396       .     S
O168  H162   0.71396       .     S
N163  C164   1.40935       .     S
C164  N163   1.40935       .     S
N163  C166   1.43782       .     S
C166  N163   1.43782       .     S
C164  H165   0.92827       .     S
H165  C164   0.92827       .     S
C164  O168   1.25954       .     S
O168  C164   1.25954       .     S
C166  H167   0.95583       .     S
H167  C166   0.95583       .     S
C166  H169   0.95665   1_655     S
H169  C166   0.95665   1_455     S
C166  C170   1.13643   1_655     S
C170  C166   1.13643   1_455     S
C166  H174   0.96513   1_655     S
H174  C166   0.96513   1_455     S
H167  C170   0.98424   1_655     S
C170  H167   0.98424   1_455     S
C170  H171   0.96063       .     S
H171  C170   0.96063       .     S
C170  H172   0.95935       .     S
H172  C170   0.95935       .     S
C170  H173   0.95939   1_455     S
H173  C170   0.95939   1_655     S
C170  H174   0.98691       .     S
H174  C170   0.98691       .     S
H175  C181   0.95981       .     S
C181  H175   0.95981       .     S
H175  H188   0.43808       .     S
H188  H175   0.43808       .     S
O176  C182   1.25479       .     S
C182  O176   1.25479       .     S
O176  C184   1.06716       .     S
C184  O176   1.06716       .     S
O176  O186   0.54605       .     S
O186  O176   0.54605       .     S
N177  C178   1.40194       .     S
C178  N177   1.40194       .     S
N177  C181   1.45770       .     S
C181  N177   1.45770       .     S
N177  C182   1.34451       .     S
C182  N177   1.34451       .     S
N177  C184   1.52165       .     S
C184  N177   1.52165       .     S
N177  C187   0.93752       .     S
C187  N177   0.93752       .     S
N177  N190   0.57138       .     S
N190  N177   0.57138       .     S
N177  H194   1.47741       .     S
H194  N177   1.47741       .     S
C178  H179   0.95961       .     S
H179  C178   0.95961       .     S
C178  H180   0.96011       .     S
H180  C178   0.96011       .     S
C178  C184   1.67064       .     S
C184  C178   1.67064       .     S
C178  N190   0.91489       .     S
N190  C178   0.91489       .     S
C178  C191   0.66282       .     S
C191  C178   0.66282       .     S
C178  H193   0.96050       .     S
H193  C178   0.96050       .     S
C178  H197   1.15107       .     S
H197  C178   1.15107       .     S
C178  H198   1.28884       .     S
H198  C178   1.28884       .     S
H179  C191   0.78097       .     S
C191  H179   0.78097       .     S
H180  C191   0.80539       .     S
C191  H180   0.80539       .     S
H180  H198   0.39151       .     S
H198  H180   0.39151       .     S
C181  C187   0.63826       .     S
C187  C181   0.63826       .     S
C181  H188   0.67970       .     S
H188  C181   0.67970       .     S
C181  H189   0.89632       .     S
H189  C181   0.89632       .     S
C181  H195   0.95998       .     S
H195  C181   0.95998       .     S
C181  H196   0.95982       .     S
H196  C181   0.95982       .     S
C182  H183   0.93056       .     S
H183  C182   0.93056       .     S
C182  C184   1.19529       .     S
C184  C182   1.19529       .     S
C182  O186   0.99000       .     S
O186  C182   0.99000       .     S
C182  N190   1.49379       .     S
N190  C182   1.49379       .     S
C184  H185   0.92774       .     S
H185  C184   0.92774       .     S
C184  O186   1.25055       .     S
O186  C184   1.25055       .     S
C184  N190   1.18704       .     S
N190  C184   1.18704       .     S
C187  H188   0.95991       .     S
H188  C187   0.95991       .     S
C187  H189   0.95945       .     S
H189  C187   0.95945       .     S
C187  N190   1.48965       .     S
N190  C187   1.48965       .     S
C187  H194   0.96137       .     S
H194  C187   0.96137       .     S
C187  H195   1.07951       .     S
H195  C187   1.07951       .     S
N190  C191   1.45848       .     S
C191  N190   1.45848       .     S
N190  H193   1.38118       .     S
H193  N190   1.38118       .     S
C191  H192   0.96090       .     S
H192  C191   0.96090       .     S
C191  H197   0.96363       .     S
H197  C191   0.96363       .     S
C191  H198   0.95708       .     S
H198  C191   0.95708       .     S
C199  H200   0.96513       .     S
H200  C199   0.96513       .     S
C199  H201   0.95673       .     S
H201  C199   0.95673       .     S
C199  H202   0.95471       .     S
H202  C199   0.95471       .     S
C199  C205   0.97304       .     S
C205  C199   0.97304       .     S
C199  H207   0.37928       .     S
H207  C199   0.37928       .     S
C199  N211   1.43035       .     S
N211  C199   1.43035       .     S
H201  C205   1.12858       .     S
C205  H201   1.12858       .     S
H201  H207   0.68177       .     S
H207  H201   0.68177       .     S
N203  C205   1.40156       .     S
C205  N203   1.40156       .     S
N203  C209   1.38944       .     S
C209  N203   1.38944       .     S
N203  N211   0.81643       .     S
N211  N203   0.81643       .     S
N203  C214   0.71053       .     S
C214  N203   0.71053       .     S
N203  H215   1.42268       .     S
H215  N203   1.42268       .     S
N203  C217   1.47348   1_455     S
C217  N203   1.47348   1_655     S
N203  H221   1.20125   1_455     S
H221  N203   1.20125   1_655     S
N203  H222   1.44213   1_455     S
H222  N203   1.44213   1_655     S
O204  C209   1.24590   1_655     S
C209  O204   1.24590   1_455     S
O204  H222   0.93527       .     S
H222  O204   0.93527       .     S
C205  H206   0.95949       .     S
H206  C205   0.95949       .     S
C205  H207   0.96046       .     S
H207  C205   0.96046       .     S
C205  H208   0.96013       .     S
H208  C205   0.96013       .     S
C205  N211   0.89806       .     S
N211  C205   0.89806       .     S
H208  N211   1.15766       .     S
N211  H208   1.15766       .     S
H208  C212   1.29887       .     S
C212  H208   1.29887       .     S
C209  H210   0.92999       .     S
H210  C209   0.92999       .     S
C209  N211   1.62901       .     S
N211  C209   1.62901       .     S
C209  C212   1.71121       .     S
C212  C209   1.71121       .     S
C209  C214   1.33349       .     S
C214  C209   1.33349       .     S
C209  H222   0.88034   1_455     S
H222  C209   0.88034   1_655     S
H210  C212   1.22414       .     S
C212  H210   1.22414       .     S
H210  O216   0.71398       .     S
O216  H210   0.71398       .     S
N211  C212   1.40935       .     S
C212  N211   1.40935       .     S
N211  C214   1.43780       .     S
C214  N211   1.43780       .     S
C212  H213   0.92837       .     S
H213  C212   0.92837       .     S
C212  O216   1.25942       .     S
O216  C212   1.25942       .     S
C214  H215   0.95577       .     S
H215  C214   0.95577       .     S
C214  C217   1.13632   1_455     S
C217  C214   1.13632   1_655     S
C214  H221   0.96506   1_455     S
H221  C214   0.96506   1_655     S
C214  H222   0.95678   1_455     S
H222  C214   0.95678   1_655     S
H215  C217   0.98432   1_455     S
C217  H215   0.98432   1_655     S
C217  H218   0.96066       .     S
H218  C217   0.96066       .     S
C217  H219   0.95922       .     S
H219  C217   0.95922       .     S
C217  H220   0.95939   1_655     S
H220  C217   0.95939   1_455     S
C217  H221   0.98691       .     S
H221  C217   0.98691       .     S
O223  C238   1.36743       .     S
C238  O223   1.36743       .     S
O223  C306   1.42924   1_455     S
C306  O223   1.42924   1_655     S
O224  C246   1.36971       .     S
C246  O224   1.36971       .     S
O224  C287   1.42342       .     S
C287  O224   1.42342       .     S
O224  Na325  2.65206       .     S
Na325 O224   2.65206       .     S
O225  C249   1.36906       .     S
C249  O225   1.36906       .     S
O225  C299   1.43409       .     S
C299  O225   1.43409       .     S
O225  Na325  2.56764       .     S
Na325 O225   2.56764       .     S
O226  C271   1.42055       .     S
C271  O226   1.42055       .     S
O226  C310   1.41662   1_545     S
C310  O226   1.41663   1_565     S
O227  C240   1.37058       .     S
C240  O227   1.37058       .     S
O227  C268   1.42383       .     S
C268  O227   1.42383       .     S
O227  Na325  2.71839       .     S
Na325 O227   2.71839       .     S
O228  C283   1.41404       .     S
C283  O228   1.41404       .     S
O228  C294   1.42751       .     S
C294  O228   1.42751       .     S
O228  Na325  2.63725       .     S
Na325 O228   2.63725       .     S
O229  H230   0.81986       .     S
H230  O229   0.81986       .     S
O229  C247   1.27267       .     S
C247  O229   1.27267       .     S
O231  C309   1.32182   1_545     S
C309  O231   1.32182   1_565     S
O232  C247   1.22303       .     S
C247  O232   1.22303       .     S
O233  H234   0.82005       .     S
H234  O233   0.82005       .     S
O233  C324   1.31764       .     S
C324  O233   1.31764       .     S
O235  C317   1.19940       .     S
C317  O235   1.19940       .     S
O236  H237   0.81998       .     S
H237  O236   0.81998       .     S
O236  C309   1.20421   1_545     S
C309  O236   1.20421   1_565     S
C238  C240   1.40573       .     S
C240  C238   1.40573       .     S
C238  C261   1.37934   1_455     S
C261  C238   1.37934   1_655     S
C239  C243   1.48412       .     S
C243  C239   1.48412       .     S
C239  C248   1.40614   1_455     S
C248  C239   1.40614   1_655     S
C239  C251   1.41197       .     S
C251  C239   1.41197       .     S
C240  C251   1.37097       .     S
C251  C240   1.37097       .     S
O241  H242   0.82015       .     S
H242  O241   0.82015       .     S
O241  C317   1.31137       .     S
C317  O241   1.31137       .     S
C243  C257   1.39847       .     S
C257  C243   1.39847       .     S
C243  C278   1.39789   1_556     S
C278  C243   1.39789   1_554     S
C244  C263   1.48963       .     S
C263  C244   1.48963       .     S
C244  C304   1.38652       .     S
C304  C244   1.38652       .     S
C244  C315   1.38705       .     S
C315  C244   1.38705       .     S
C245  C248   1.49818       .     S
C248  C245   1.49818       .     S
C245  C276   1.38244       .     S
C276  C245   1.38244       .     S
C245  C322   1.38306       .     S
C322  C245   1.38306       .     S
C246  C249   1.39937       .     S
C249  C246   1.39937       .     S
C246  C254   1.38015       .     S
C254  C246   1.38015       .     S
C247  C260   1.51489       .     S
C260  C247   1.51489       .     S
C248  C261   1.39010       .     S
C261  C248   1.39010       .     S
C249  C264   1.37447       .     S
C264  C249   1.37447       .     S
C250  C256   1.49185       .     S
C256  C250   1.49185       .     S
C250  C280   1.38639       .     S
C280  C250   1.38639       .     S
C250  C292   1.39897       .     S
C292  C250   1.39897       .     S
C251  H252   0.93011       .     S
H252  C251   0.93011       .     S
O253  C324   1.20246       .     S
C324  O253   1.20246       .     S
C254  H255   0.93028       .     S
H255  C254   0.93028       .     S
C254  C263   1.40684       .     S
C263  C254   1.40684       .     S
C256  C263   1.40069       .     S
C263  C256   1.40069       .     S
C256  C264   1.40083       .     S
C264  C256   1.40083       .     S
C257  H258   0.93012       .     S
H258  C257   0.93012       .     S
C257  C266   1.38706   1_556     S
C266  C257   1.38707   1_554     S
C259  C266   1.39364       .     S
C266  C259   1.39364       .     S
C259  C302   1.39503       .     S
C302  C259   1.39503       .     S
C259  C309   1.48790       .     S
C309  C259   1.48790       .     S
C260  C274   1.37967       .     S
C274  C260   1.37967       .     S
C260  C320   1.38772       .     S
C320  C260   1.38772       .     S
C261  H262   0.92999       .     S
H262  C261   0.92999       .     S
C264  H265   0.92958       .     S
H265  C264   0.92958       .     S
C266  H267   0.93021       .     S
H267  C266   0.93021       .     S
C268  H269   0.97019       .     S
H269  C268   0.97019       .     S
C268  H270   0.96980       .     S
H270  C268   0.96980       .     S
C268  C294   1.50117       .     S
C294  C268   1.50117       .     S
C271  H272   0.97020       .     S
H272  C271   0.97020       .     S
C271  H273   0.96937       .     S
H273  C271   0.96937       .     S
C271  C306   1.48859       .     S
C306  C271   1.48859       .     S
C274  H275   0.93021       .     S
H275  C274   0.93021       .     S
C274  C276   1.38701       .     S
C276  C274   1.38701       .     S
C276  H277   0.92983       .     S
H277  C276   0.92983       .     S
C278  H279   0.92991       .     S
H279  C278   0.92991       .     S
C278  C302   1.37710       .     S
C302  C278   1.37710       .     S
C280  H281   0.93014       .     S
H281  C280   0.93014       .     S
C280  C290   1.37983       .     S
C290  C280   1.37983       .     S
C282  C290   1.38687       .     S
C290  C282   1.38687       .     S
C282  C297   1.38779       .     S
C297  C282   1.38779       .     S
C282  C324   1.50133       .     S
C324  C282   1.50133       .     S
C283  H284   0.97004       .     S
H284  C283   0.97004       .     S
C283  H285   0.97025       .     S
H285  C283   0.97025       .     S
C283  C287   1.49054       .     S
C287  C283   1.49054       .     S
C286  C313   1.38561       .     S
C313  C286   1.38561       .     S
C286  C317   1.48636   1_655     S
C317  C286   1.48636   1_455     S
C286  C318   1.38720       .     S
C318  C286   1.38720       .     S
C287  H288   0.96963       .     S
H288  C287   0.96963       .     S
C287  H289   0.97001       .     S
H289  C287   0.97001       .     S
C290  H291   0.92967       .     S
H291  C290   0.92967       .     S
C292  H293   0.93027       .     S
H293  C292   0.93027       .     S
C292  C297   1.37280       .     S
C297  C292   1.37280       .     S
C294  H295   0.96966       .     S
H295  C294   0.96966       .     S
C294  H296   0.96972       .     S
H296  C294   0.96972       .     S
C297  H298   0.93025       .     S
H298  C297   0.93025       .     S
C299  H300   0.96990       .     S
H300  C299   0.96990       .     S
C299  H301   0.97019   1_545     S
H301  C299   0.97019   1_565     S
C299  C310   1.49823   1_445     S
C310  C299   1.49823   1_665     S
C302  H303   0.92977       .     S
H303  C302   0.92977       .     S
C304  H305   0.93000       .     S
H305  C304   0.93000       .     S
C304  C313   1.37747       .     S
C313  C304   1.37747       .     S
C306  H307   0.97016       .     S
H307  C306   0.97016       .     S
C306  H308   0.97022       .     S
H308  C306   0.97022       .     S
C310  H311   0.96962   1_655     S
H311  C310   0.96962   1_455     S
C310  H312   0.96995       .     S
H312  C310   0.96995       .     S
C313  H314   0.93004       .     S
H314  C313   0.93004       .     S
C315  H316   0.93066       .     S
H316  C315   0.93066       .     S
C315  C318   1.38441       .     S
C318  C315   1.38441       .     S
C318  H319   0.93019       .     S
H319  C318   0.93019       .     S
C320  H321   0.93051       .     S
H321  C320   0.93051       .     S
C320  C322   1.38768       .     S
C322  C320   1.38768       .     S
C322  H323   0.93022       .     S
H323  C322   0.93022       .     S
Na325 O327   2.21658       .     S
O327  Na325  2.21658       .     S
Na325 O338   2.28230       .     S
O338  Na325  2.28230       .     S
N326  C328   1.33276       .     S
C328  N326   1.33276       .     S
N326  C330   1.44206       .     S
C330  N326   1.44206       .     S
N326  C334   1.42633       .     S
C334  N326   1.42633       .     S
O327  C328   1.20506       .     S
C328  O327   1.20506       .     S
C328  H329   0.92941       .     S
H329  C328   0.92941       .     S
C330  H331   0.96103       .     S
H331  C330   0.96103       .     S
C330  H332   0.95957       .     S
H332  C330   0.95957       .     S
C330  H333   0.95952       .     S
H333  C330   0.95952       .     S
C334  H335   0.95998       .     S
H335  C334   0.95998       .     S
C334  H336   0.96017       .     S
H336  C334   0.96017       .     S
C334  H337   0.95987       .     S
H337  C334   0.95987       .     S
O338  C340   1.21841       .     S
C340  O338   1.21841       .     S
N339  C340   1.30965   1_565     S
C340  N339   1.30965   1_545     S
N339  C342   1.44980       .     S
C342  N339   1.44980       .     S
N339  C346   1.42905       .     S
C346  N339   1.42905       .     S
C340  H341   0.92935       .     S
H341  C340   0.92935       .     S
C342  H343   0.96062       .     S
H343  C342   0.96062       .     S
C342  H344   0.95974       .     S
H344  C342   0.95974       .     S
C342  H345   0.95956       .     S
H345  C342   0.95956       .     S
C346  H347   0.96029   1_565     S
H347  C346   0.96029   1_545     S
C346  H348   0.95981       .     S
H348  C346   0.95981       .     S
C346  H349   0.96016       .     S
H349  C346   0.96016       .     S
O231  H7     1.79063       .     S
H7    O231   1.79063       .     S
O229  H11    1.82891       .     S
H11   O229   1.82891       .     S
O229  H14    2.40513       .     S
H14   O229   2.40513       .     S
O176  H19    1.81542       .     S
H19   O176   1.81542       .     S
O186  H19    1.80528       .     S
H19   O186   1.80528       .     S
O156  H162   1.88375   1_455     S
H162  O156   1.88375   1_655     S
N155  H162   2.01375       .     S
H162  N155   2.01375       .     S
N163  H162   1.91764       .     S
H162  N163   1.91764       .     S
N155  H169   1.44213   1_655     S
H169  N155   1.44213   1_455     S
N163  H169   1.93357   1_655     S
H169  N163   1.93357   1_455     S
O204  H210   1.88375   1_655     S
H210  O204   1.88375   1_455     S
N203  H210   2.01375       .     S
H210  N203   2.01375       .     S
N211  H210   1.91765       .     S
H210  N211   1.91765       .     S
N203  H222   1.44213   1_455     S
H222  N203   1.44213   1_655     S
N211  H222   1.93357   1_455     S
H222  N211   1.93357   1_655     S
O8    H230   1.79070       .     S
H230  O8     1.79070       .     S
O6    H234   1.82887       .     S
H234  O6     1.82887       .     S
O6    H237   2.40513       .     S
H237  O6     2.40513       .     S
O128  H242   1.81542       .     S
H242  O128   1.81542       .     S
O138  H242   1.80528       .     S
H242  O138   1.80528       .     S
C15   O0     1.36732       .     S
O0    C15    1.36732       .     S
C83   O0     1.42924   1_455     S
O0    C83    1.42924   1_655     S
C23   O1     1.36973       .     S
O1    C23    1.36973       .     S
C64   O1     1.42340       .     S
O1    C64    1.42340       .     S
Na102 O1     2.65200       .     S
O1    Na102  2.65200       .     S
C26   O2     1.36904       .     S
O2    C26    1.36904       .     S
C76   O2     1.43409       .     S
O2    C76    1.43409       .     S
Na102 O2     2.56764       .     S
O2    Na102  2.56764       .     S
C48   O3     1.42055       .     S
O3    C48    1.42055       .     S
C87   O3     1.41663   1_545     S
O3    C87    1.41663   1_565     S
C17   O4     1.37048       .     S
O4    C17    1.37048       .     S
C45   O4     1.42391       .     S
O4    C45    1.42391       .     S
Na102 O4     2.71842       .     S
O4    Na102  2.71842       .     S
C60   O5     1.41415       .     S
O5    C60    1.41415       .     S
C71   O5     1.42755       .     S
O5    C71    1.42755       .     S
Na102 O5     2.63725       .     S
O5    Na102  2.63725       .     S
H7    O6     0.82001       .     S
O6    H7     0.82001       .     S
C24   O6     1.27267       .     S
O6    C24    1.27267       .     S
C86   O8     1.32182   1_545     S
O8    C86    1.32182   1_565     S
C24   O9     1.22303       .     S
O9    C24    1.22303       .     S
H11   O10    0.82007       .     S
O10   H11    0.82007       .     S
C101  O10    1.31761       .     S
O10   C101   1.31761       .     S
C94   O12    1.19961       .     S
O12   C94    1.19961       .     S
H14   O13    0.82010       .     S
O13   H14    0.82010       .     S
C86   O13    1.20417   1_545     S
O13   C86    1.20417   1_565     S
C17   C15    1.40573       .     S
C15   C17    1.40573       .     S
C38   C15    1.37954   1_455     S
C15   C38    1.37954   1_655     S
C20   C16    1.48412       .     S
C16   C20    1.48412       .     S
C25   C16    1.40614   1_455     S
C16   C25    1.40614   1_655     S
C28   C16    1.41197       .     S
C16   C28    1.41197       .     S
C28   C17    1.37097       .     S
C17   C28    1.37097       .     S
H19   O18    0.82026       .     S
O18   H19    0.82026       .     S
C94   O18    1.31137       .     S
O18   C94    1.31137       .     S
C34   C20    1.39842       .     S
C20   C34    1.39842       .     S
C55   C20    1.39789   1_556     S
C20   C55    1.39789   1_554     S
C40   C21    1.48963       .     S
C21   C40    1.48963       .     S
C81   C21    1.38652       .     S
C21   C81    1.38652       .     S
C92   C21    1.38715       .     S
C21   C92    1.38715       .     S
C25   C22    1.49828       .     S
C22   C25    1.49828       .     S
C53   C22    1.38235       .     S
C22   C53    1.38235       .     S
C99   C22    1.38306       .     S
C22   C99    1.38306       .     S
C26   C23    1.39937       .     S
C23   C26    1.39937       .     S
C31   C23    1.38016       .     S
C23   C31    1.38016       .     S
C37   C24    1.51489       .     S
C24   C37    1.51489       .     S
C38   C25    1.39008       .     S
C25   C38    1.39008       .     S
C41   C26    1.37450       .     S
C26   C41    1.37450       .     S
C33   C27    1.49188       .     S
C27   C33    1.49188       .     S
C57   C27    1.38631       .     S
C27   C57    1.38631       .     S
C69   C27    1.39904       .     S
C27   C69    1.39904       .     S
H29   C28    0.93011       .     S
C28   H29    0.93011       .     S
C101  O30    1.20246       .     S
O30   C101   1.20246       .     S
H32   C31    0.93019       .     S
C31   H32    0.93019       .     S
C40   C31    1.40684       .     S
C31   C40    1.40684       .     S
C40   C33    1.40066       .     S
C33   C40    1.40066       .     S
C41   C33    1.40082       .     S
C33   C41    1.40082       .     S
H35   C34    0.93006       .     S
C34   H35    0.93006       .     S
C43   C34    1.38718   1_556     S
C34   C43    1.38718   1_554     S
C43   C36    1.39364       .     S
C36   C43    1.39364       .     S
C79   C36    1.39495       .     S
C36   C79    1.39495       .     S
C86   C36    1.48788       .     S
C36   C86    1.48788       .     S
C51   C37    1.37978       .     S
C37   C51    1.37978       .     S
C97   C37    1.38769       .     S
C37   C97    1.38769       .     S
H39   C38    0.92991       .     S
C38   H39    0.92991       .     S
H42   C41    0.92955       .     S
C41   H42    0.92955       .     S
H44   C43    0.93029       .     S
C43   H44    0.93029       .     S
H46   C45    0.97019       .     S
C45   H46    0.97019       .     S
H47   C45    0.96980       .     S
C45   H47    0.96980       .     S
C71   C45    1.50120       .     S
C45   C71    1.50120       .     S
H49   C48    0.97028       .     S
C48   H49    0.97028       .     S
H50   C48    0.96933       .     S
C48   H50    0.96933       .     S
C83   C48    1.48859       .     S
C48   C83    1.48859       .     S
H52   C51    0.93009       .     S
C51   H52    0.93009       .     S
C53   C51    1.38702       .     S
C51   C53    1.38702       .     S
H54   C53    0.92983       .     S
C53   H54    0.92983       .     S
H56   C55    0.93000       .     S
C55   H56    0.93000       .     S
C79   C55    1.37710       .     S
C55   C79    1.37710       .     S
H58   C57    0.93007       .     S
C57   H58    0.93007       .     S
C67   C57    1.37983       .     S
C57   C67    1.37983       .     S
C67   C59    1.38687       .     S
C59   C67    1.38687       .     S
C74   C59    1.38771       .     S
C59   C74    1.38771       .     S
C101  C59    1.50133       .     S
C59   C101   1.50133       .     S
H61   C60    0.96994       .     S
C60   H61    0.96994       .     S
H62   C60    0.97014       .     S
C60   H62    0.97014       .     S
C64   C60    1.49052       .     S
C60   C64    1.49052       .     S
C90   C63    1.38549       .     S
C63   C90    1.38549       .     S
C94   C63    1.48635   1_655     S
C63   C94    1.48635   1_455     S
C95   C63    1.38731       .     S
C63   C95    1.38731       .     S
H65   C64    0.96963       .     S
C64   H65    0.96963       .     S
H66   C64    0.97003       .     S
C64   H66    0.97003       .     S
H68   C67    0.92967       .     S
C67   H68    0.92967       .     S
H70   C69    0.93027       .     S
C69   H70    0.93027       .     S
C74   C69    1.37284       .     S
C69   C74    1.37284       .     S
H72   C71    0.96956       .     S
C71   H72    0.96956       .     S
H73   C71    0.96978       .     S
C71   H73    0.96978       .     S
H75   C74    0.93025       .     S
C74   H75    0.93025       .     S
H77   C76    0.96990       .     S
C76   H77    0.96990       .     S
H78   C76    0.97028   1_545     S
C76   H78    0.97028   1_565     S
C87   C76    1.49823   1_445     S
C76   C87    1.49823   1_665     S
H80   C79    0.92982       .     S
C79   H80    0.92982       .     S
H82   C81    0.92989       .     S
C81   H82    0.92989       .     S
C90   C81    1.37747       .     S
C81   C90    1.37747       .     S
H84   C83    0.97016       .     S
C83   H84    0.97016       .     S
H85   C83    0.97022       .     S
C83   H85    0.97022       .     S
H88   C87    0.96957   1_655     S
C87   H88    0.96957   1_455     S
H89   C87    0.96995       .     S
C87   H89    0.96995       .     S
H91   C90    0.93005       .     S
C90   H91    0.93005       .     S
H93   C92    0.93060       .     S
C92   H93    0.93060       .     S
C95   C92    1.38431       .     S
C92   C95    1.38431       .     S
H96   C95    0.93009       .     S
C95   H96    0.93009       .     S
H98   C97    0.93065       .     S
C97   H98    0.93065       .     S
C99   C97    1.38748       .     S
C97   C99    1.38748       .     S
H100  C99    0.93031       .     S
C99   H100   0.93031       .     S
O104  Na102  2.21658       .     S
Na102 O104   2.21658       .     S
O115  Na102  2.28242       .     S
Na102 O115   2.28242       .     S
C105  N103   1.33287       .     S
N103  C105   1.33287       .     S
C107  N103   1.44208       .     S
N103  C107   1.44208       .     S
C111  N103   1.42633       .     S
N103  C111   1.42633       .     S
C105  O104   1.20494       .     S
O104  C105   1.20494       .     S
H106  C105   0.92942       .     S
C105  H106   0.92942       .     S
H108  C107   0.96092       .     S
C107  H108   0.96092       .     S
H109  C107   0.95947       .     S
C107  H109   0.95947       .     S
H110  C107   0.95952       .     S
C107  H110   0.95952       .     S
H112  C111   0.95998       .     S
C111  H112   0.95998       .     S
H113  C111   0.96017       .     S
C111  H113   0.96017       .     S
H114  C111   0.95987       .     S
C111  H114   0.95987       .     S
C117  O115   1.21834       .     S
O115  C117   1.21834       .     S
C117  N116   1.30965   1_565     S
N116  C117   1.30965   1_545     S
C119  N116   1.44980       .     S
N116  C119   1.44980       .     S
C123  N116   1.42905       .     S
N116  C123   1.42905       .     S
H118  C117   0.92926       .     S
C117  H118   0.92926       .     S
H120  C119   0.96061       .     S
C119  H120   0.96061       .     S
H121  C119   0.95974       .     S
C119  H121   0.95974       .     S
H122  C119   0.95956       .     S
C119  H122   0.95956       .     S
H124  C123   0.96029   1_565     S
C123  H124   0.96029   1_545     S
H125  C123   0.95974       .     S
C123  H125   0.95974       .     S
H126  C123   0.96016       .     S
C123  H126   0.96016       .     S
C143  H127   0.96091       .     S
H127  C143   0.96091       .     S
C134  O128   1.25484       .     S
O128  C134   1.25484       .     S
C136  O128   1.06726       .     S
O128  C136   1.06726       .     S
O138  O128   0.54605       .     S
O128  O138   0.54605       .     S
C130  N129   1.40197       .     S
N129  C130   1.40197       .     S
C133  N129   1.45764       .     S
N129  C133   1.45764       .     S
C134  N129   1.34451       .     S
N129  C134   1.34451       .     S
C136  N129   1.52164       .     S
N129  C136   1.52164       .     S
C139  N129   0.93747       .     S
N129  C139   0.93747       .     S
N142  N129   0.57150       .     S
N129  N142   0.57150       .     S
H145  N129   1.47738       .     S
N129  H145   1.47738       .     S
H131  C130   0.95961       .     S
C130  H131   0.95961       .     S
H132  C130   0.96021       .     S
C130  H132   0.96021       .     S
C136  C130   1.67053       .     S
C130  C136   1.67053       .     S
N142  C130   0.91478       .     S
C130  N142   0.91478       .     S
C143  C130   0.66290       .     S
C130  C143   0.66290       .     S
H148  C130   1.28884       .     S
C130  H148   1.28884       .     S
H149  C130   1.15117       .     S
C130  H149   1.15117       .     S
H150  C130   0.96050       .     S
C130  H150   0.96050       .     S
C143  H131   0.78109       .     S
H131  C143   0.78109       .     S
C143  H132   0.80542       .     S
H132  C143   0.80542       .     S
H148  H132   0.39149       .     S
H132  H148   0.39149       .     S
C139  C133   0.63830       .     S
C133  C139   0.63830       .     S
H140  C133   0.67966       .     S
C133  H140   0.67966       .     S
H141  C133   0.89636       .     S
C133  H141   0.89636       .     S
H144  C133   0.95981       .     S
C133  H144   0.95981       .     S
H146  C133   0.95982       .     S
C133  H146   0.95982       .     S
H147  C133   0.96009       .     S
C133  H147   0.96009       .     S
H135  C134   0.93043       .     S
C134  H135   0.93043       .     S
C136  C134   1.19538       .     S
C134  C136   1.19538       .     S
O138  C134   0.99008       .     S
C134  O138   0.99008       .     S
N142  C134   1.49389       .     S
C134  N142   1.49389       .     S
H137  C136   0.92777       .     S
C136  H137   0.92777       .     S
O138  C136   1.25067       .     S
C136  O138   1.25067       .     S
N142  C136   1.18699       .     S
C136  N142   1.18699       .     S
H140  C139   0.95991       .     S
C139  H140   0.95991       .     S
H141  C139   0.95945       .     S
C139  H141   0.95945       .     S
N142  C139   1.48971       .     S
C139  N142   1.48971       .     S
H145  C139   0.96137       .     S
C139  H145   0.96137       .     S
H147  C139   1.07951       .     S
C139  H147   1.07951       .     S
H144  H140   0.43814       .     S
H140  H144   0.43814       .     S
C143  N142   1.45846       .     S
N142  C143   1.45846       .     S
H150  N142   1.38112       .     S
N142  H150   1.38112       .     S
H148  C143   0.95694       .     S
C143  H148   0.95694       .     S
H149  C143   0.96372       .     S
C143  H149   0.96372       .     S
H152  C151   0.96524       .     S
C151  H152   0.96524       .     S
H153  C151   0.95670       .     S
C151  H153   0.95670       .     S
H154  C151   0.95465       .     S
C151  H154   0.95465       .     S
C157  C151   0.97300       .     S
C151  C157   0.97300       .     S
H159  C151   0.37900       .     S
C151  H159   0.37900       .     S
N163  C151   1.43032       .     S
C151  N163   1.43032       .     S
C157  H153   1.12858       .     S
H153  C157   1.12858       .     S
H159  H153   0.68204       .     S
H153  H159   0.68204       .     S
C157  N155   1.40156       .     S
N155  C157   1.40156       .     S
C161  N155   1.38942       .     S
N155  C161   1.38942       .     S
N163  N155   0.81643       .     S
N155  N163   0.81643       .     S
C166  N155   0.71058       .     S
N155  C166   0.71058       .     S
H167  N155   1.42273       .     S
N155  H167   1.42273       .     S
H169  N155   1.44213   1_455     S
N155  H169   1.44213   1_655     S
C170  N155   1.47348   1_455     S
N155  C170   1.47348   1_655     S
H174  N155   1.20125   1_455     S
N155  H174   1.20125   1_655     S
C161  O156   1.24584   1_655     S
O156  C161   1.24584   1_455     S
H169  O156   0.93527       .     S
O156  H169   0.93527       .     S
H158  C157   0.95930       .     S
C157  H158   0.95930       .     S
H159  C157   0.96051       .     S
C157  H159   0.96051       .     S
H160  C157   0.96013       .     S
C157  H160   0.96013       .     S
N163  C157   0.89806       .     S
C157  N163   0.89806       .     S
N163  H160   1.15766       .     S
H160  N163   1.15766       .     S
C164  H160   1.29887       .     S
H160  C164   1.29887       .     S
H162  C161   0.93007       .     S
C161  H162   0.93007       .     S
N163  C161   1.62906       .     S
C161  N163   1.62906       .     S
C164  C161   1.71131       .     S
C161  C164   1.71131       .     S
C166  C161   1.33334       .     S
C161  C166   1.33334       .     S
H169  C161   0.88028   1_455     S
C161  H169   0.88028   1_655     S
C164  H162   1.22414       .     S
H162  C164   1.22414       .     S
O168  H162   0.71396       .     S
H162  O168   0.71396       .     S
C164  N163   1.40935       .     S
N163  C164   1.40935       .     S
C166  N163   1.43782       .     S
N163  C166   1.43782       .     S
H165  C164   0.92827       .     S
C164  H165   0.92827       .     S
O168  C164   1.25954       .     S
C164  O168   1.25954       .     S
H167  C166   0.95583       .     S
C166  H167   0.95583       .     S
H169  C166   0.95665   1_455     S
C166  H169   0.95665   1_655     S
C170  C166   1.13643   1_455     S
C166  C170   1.13643   1_655     S
H174  C166   0.96513   1_455     S
C166  H174   0.96513   1_655     S
C170  H167   0.98424   1_455     S
H167  C170   0.98424   1_655     S
H171  C170   0.96063       .     S
C170  H171   0.96063       .     S
H172  C170   0.95935       .     S
C170  H172   0.95935       .     S
H173  C170   0.95939   1_655     S
C170  H173   0.95939   1_455     S
H174  C170   0.98691       .     S
C170  H174   0.98691       .     S
C181  H175   0.95981       .     S
H175  C181   0.95981       .     S
H188  H175   0.43808       .     S
H175  H188   0.43808       .     S
C182  O176   1.25479       .     S
O176  C182   1.25479       .     S
C184  O176   1.06716       .     S
O176  C184   1.06716       .     S
O186  O176   0.54605       .     S
O176  O186   0.54605       .     S
C178  N177   1.40194       .     S
N177  C178   1.40194       .     S
C181  N177   1.45770       .     S
N177  C181   1.45770       .     S
C182  N177   1.34451       .     S
N177  C182   1.34451       .     S
C184  N177   1.52165       .     S
N177  C184   1.52165       .     S
C187  N177   0.93752       .     S
N177  C187   0.93752       .     S
N190  N177   0.57138       .     S
N177  N190   0.57138       .     S
H194  N177   1.47741       .     S
N177  H194   1.47741       .     S
H179  C178   0.95961       .     S
C178  H179   0.95961       .     S
H180  C178   0.96011       .     S
C178  H180   0.96011       .     S
C184  C178   1.67064       .     S
C178  C184   1.67064       .     S
N190  C178   0.91489       .     S
C178  N190   0.91489       .     S
C191  C178   0.66282       .     S
C178  C191   0.66282       .     S
H193  C178   0.96050       .     S
C178  H193   0.96050       .     S
H197  C178   1.15107       .     S
C178  H197   1.15107       .     S
H198  C178   1.28884       .     S
C178  H198   1.28884       .     S
C191  H179   0.78097       .     S
H179  C191   0.78097       .     S
C191  H180   0.80539       .     S
H180  C191   0.80539       .     S
H198  H180   0.39151       .     S
H180  H198   0.39151       .     S
C187  C181   0.63826       .     S
C181  C187   0.63826       .     S
H188  C181   0.67970       .     S
C181  H188   0.67970       .     S
H189  C181   0.89632       .     S
C181  H189   0.89632       .     S
H195  C181   0.95998       .     S
C181  H195   0.95998       .     S
H196  C181   0.95982       .     S
C181  H196   0.95982       .     S
H183  C182   0.93056       .     S
C182  H183   0.93056       .     S
C184  C182   1.19529       .     S
C182  C184   1.19529       .     S
O186  C182   0.99000       .     S
C182  O186   0.99000       .     S
N190  C182   1.49379       .     S
C182  N190   1.49379       .     S
H185  C184   0.92774       .     S
C184  H185   0.92774       .     S
O186  C184   1.25055       .     S
C184  O186   1.25055       .     S
N190  C184   1.18704       .     S
C184  N190   1.18704       .     S
H188  C187   0.95991       .     S
C187  H188   0.95991       .     S
H189  C187   0.95945       .     S
C187  H189   0.95945       .     S
N190  C187   1.48965       .     S
C187  N190   1.48965       .     S
H194  C187   0.96137       .     S
C187  H194   0.96137       .     S
H195  C187   1.07951       .     S
C187  H195   1.07951       .     S
C191  N190   1.45848       .     S
N190  C191   1.45848       .     S
H193  N190   1.38118       .     S
N190  H193   1.38118       .     S
H192  C191   0.96090       .     S
C191  H192   0.96090       .     S
H197  C191   0.96363       .     S
C191  H197   0.96363       .     S
H198  C191   0.95708       .     S
C191  H198   0.95708       .     S
H200  C199   0.96513       .     S
C199  H200   0.96513       .     S
H201  C199   0.95673       .     S
C199  H201   0.95673       .     S
H202  C199   0.95471       .     S
C199  H202   0.95471       .     S
C205  C199   0.97304       .     S
C199  C205   0.97304       .     S
H207  C199   0.37928       .     S
C199  H207   0.37928       .     S
N211  C199   1.43035       .     S
C199  N211   1.43035       .     S
C205  H201   1.12858       .     S
H201  C205   1.12858       .     S
H207  H201   0.68177       .     S
H201  H207   0.68177       .     S
C205  N203   1.40156       .     S
N203  C205   1.40156       .     S
C209  N203   1.38944       .     S
N203  C209   1.38944       .     S
N211  N203   0.81643       .     S
N203  N211   0.81643       .     S
C214  N203   0.71053       .     S
N203  C214   0.71053       .     S
H215  N203   1.42268       .     S
N203  H215   1.42268       .     S
C217  N203   1.47348   1_655     S
N203  C217   1.47348   1_455     S
H221  N203   1.20125   1_655     S
N203  H221   1.20125   1_455     S
H222  N203   1.44213   1_655     S
N203  H222   1.44213   1_455     S
C209  O204   1.24590   1_455     S
O204  C209   1.24590   1_655     S
H222  O204   0.93527       .     S
O204  H222   0.93527       .     S
H206  C205   0.95949       .     S
C205  H206   0.95949       .     S
H207  C205   0.96046       .     S
C205  H207   0.96046       .     S
H208  C205   0.96013       .     S
C205  H208   0.96013       .     S
N211  C205   0.89806       .     S
C205  N211   0.89806       .     S
N211  H208   1.15766       .     S
H208  N211   1.15766       .     S
C212  H208   1.29887       .     S
H208  C212   1.29887       .     S
H210  C209   0.92999       .     S
C209  H210   0.92999       .     S
N211  C209   1.62901       .     S
C209  N211   1.62901       .     S
C212  C209   1.71121       .     S
C209  C212   1.71121       .     S
C214  C209   1.33349       .     S
C209  C214   1.33349       .     S
H222  C209   0.88034   1_655     S
C209  H222   0.88034   1_455     S
C212  H210   1.22414       .     S
H210  C212   1.22414       .     S
O216  H210   0.71398       .     S
H210  O216   0.71398       .     S
C212  N211   1.40935       .     S
N211  C212   1.40935       .     S
C214  N211   1.43780       .     S
N211  C214   1.43780       .     S
H213  C212   0.92837       .     S
C212  H213   0.92837       .     S
O216  C212   1.25942       .     S
C212  O216   1.25942       .     S
H215  C214   0.95577       .     S
C214  H215   0.95577       .     S
C217  C214   1.13632   1_655     S
C214  C217   1.13632   1_455     S
H221  C214   0.96506   1_655     S
C214  H221   0.96506   1_455     S
H222  C214   0.95678   1_655     S
C214  H222   0.95678   1_455     S
C217  H215   0.98432   1_655     S
H215  C217   0.98432   1_455     S
H218  C217   0.96066       .     S
C217  H218   0.96066       .     S
H219  C217   0.95922       .     S
C217  H219   0.95922       .     S
H220  C217   0.95939   1_455     S
C217  H220   0.95939   1_655     S
H221  C217   0.98691       .     S
C217  H221   0.98691       .     S
C238  O223   1.36743       .     S
O223  C238   1.36743       .     S
C306  O223   1.42924   1_655     S
O223  C306   1.42924   1_455     S
C246  O224   1.36971       .     S
O224  C246   1.36971       .     S
C287  O224   1.42342       .     S
O224  C287   1.42342       .     S
Na325 O224   2.65206       .     S
O224  Na325  2.65206       .     S
C249  O225   1.36906       .     S
O225  C249   1.36906       .     S
C299  O225   1.43409       .     S
O225  C299   1.43409       .     S
Na325 O225   2.56764       .     S
O225  Na325  2.56764       .     S
C271  O226   1.42055       .     S
O226  C271   1.42055       .     S
C310  O226   1.41663   1_565     S
O226  C310   1.41662   1_545     S
C240  O227   1.37058       .     S
O227  C240   1.37058       .     S
C268  O227   1.42383       .     S
O227  C268   1.42383       .     S
Na325 O227   2.71839       .     S
O227  Na325  2.71839       .     S
C283  O228   1.41404       .     S
O228  C283   1.41404       .     S
C294  O228   1.42751       .     S
O228  C294   1.42751       .     S
Na325 O228   2.63725       .     S
O228  Na325  2.63725       .     S
H230  O229   0.81986       .     S
O229  H230   0.81986       .     S
C247  O229   1.27267       .     S
O229  C247   1.27267       .     S
C309  O231   1.32182   1_565     S
O231  C309   1.32182   1_545     S
C247  O232   1.22303       .     S
O232  C247   1.22303       .     S
H234  O233   0.82005       .     S
O233  H234   0.82005       .     S
C324  O233   1.31764       .     S
O233  C324   1.31764       .     S
C317  O235   1.19940       .     S
O235  C317   1.19940       .     S
H237  O236   0.81998       .     S
O236  H237   0.81998       .     S
C309  O236   1.20421   1_565     S
O236  C309   1.20421   1_545     S
C240  C238   1.40573       .     S
C238  C240   1.40573       .     S
C261  C238   1.37934   1_655     S
C238  C261   1.37934   1_455     S
C243  C239   1.48412       .     S
C239  C243   1.48412       .     S
C248  C239   1.40614   1_655     S
C239  C248   1.40614   1_455     S
C251  C239   1.41197       .     S
C239  C251   1.41197       .     S
C251  C240   1.37097       .     S
C240  C251   1.37097       .     S
H242  O241   0.82015       .     S
O241  H242   0.82015       .     S
C317  O241   1.31137       .     S
O241  C317   1.31137       .     S
C257  C243   1.39847       .     S
C243  C257   1.39847       .     S
C278  C243   1.39789   1_554     S
C243  C278   1.39789   1_556     S
C263  C244   1.48963       .     S
C244  C263   1.48963       .     S
C304  C244   1.38652       .     S
C244  C304   1.38652       .     S
C315  C244   1.38705       .     S
C244  C315   1.38705       .     S
C248  C245   1.49818       .     S
C245  C248   1.49818       .     S
C276  C245   1.38244       .     S
C245  C276   1.38244       .     S
C322  C245   1.38306       .     S
C245  C322   1.38306       .     S
C249  C246   1.39937       .     S
C246  C249   1.39937       .     S
C254  C246   1.38015       .     S
C246  C254   1.38015       .     S
C260  C247   1.51489       .     S
C247  C260   1.51489       .     S
C261  C248   1.39010       .     S
C248  C261   1.39010       .     S
C264  C249   1.37447       .     S
C249  C264   1.37447       .     S
C256  C250   1.49185       .     S
C250  C256   1.49185       .     S
C280  C250   1.38639       .     S
C250  C280   1.38639       .     S
C292  C250   1.39897       .     S
C250  C292   1.39897       .     S
H252  C251   0.93011       .     S
C251  H252   0.93011       .     S
C324  O253   1.20246       .     S
O253  C324   1.20246       .     S
H255  C254   0.93028       .     S
C254  H255   0.93028       .     S
C263  C254   1.40684       .     S
C254  C263   1.40684       .     S
C263  C256   1.40069       .     S
C256  C263   1.40069       .     S
C264  C256   1.40083       .     S
C256  C264   1.40083       .     S
H258  C257   0.93012       .     S
C257  H258   0.93012       .     S
C266  C257   1.38707   1_554     S
C257  C266   1.38706   1_556     S
C266  C259   1.39364       .     S
C259  C266   1.39364       .     S
C302  C259   1.39503       .     S
C259  C302   1.39503       .     S
C309  C259   1.48790       .     S
C259  C309   1.48790       .     S
C274  C260   1.37967       .     S
C260  C274   1.37967       .     S
C320  C260   1.38772       .     S
C260  C320   1.38772       .     S
H262  C261   0.92999       .     S
C261  H262   0.92999       .     S
H265  C264   0.92958       .     S
C264  H265   0.92958       .     S
H267  C266   0.93021       .     S
C266  H267   0.93021       .     S
H269  C268   0.97019       .     S
C268  H269   0.97019       .     S
H270  C268   0.96980       .     S
C268  H270   0.96980       .     S
C294  C268   1.50117       .     S
C268  C294   1.50117       .     S
H272  C271   0.97020       .     S
C271  H272   0.97020       .     S
H273  C271   0.96937       .     S
C271  H273   0.96937       .     S
C306  C271   1.48859       .     S
C271  C306   1.48859       .     S
H275  C274   0.93021       .     S
C274  H275   0.93021       .     S
C276  C274   1.38701       .     S
C274  C276   1.38701       .     S
H277  C276   0.92983       .     S
C276  H277   0.92983       .     S
H279  C278   0.92991       .     S
C278  H279   0.92991       .     S
C302  C278   1.37710       .     S
C278  C302   1.37710       .     S
H281  C280   0.93014       .     S
C280  H281   0.93014       .     S
C290  C280   1.37983       .     S
C280  C290   1.37983       .     S
C290  C282   1.38687       .     S
C282  C290   1.38687       .     S
C297  C282   1.38779       .     S
C282  C297   1.38779       .     S
C324  C282   1.50133       .     S
C282  C324   1.50133       .     S
H284  C283   0.97004       .     S
C283  H284   0.97004       .     S
H285  C283   0.97025       .     S
C283  H285   0.97025       .     S
C287  C283   1.49054       .     S
C283  C287   1.49054       .     S
C313  C286   1.38561       .     S
C286  C313   1.38561       .     S
C317  C286   1.48636   1_455     S
C286  C317   1.48636   1_655     S
C318  C286   1.38720       .     S
C286  C318   1.38720       .     S
H288  C287   0.96963       .     S
C287  H288   0.96963       .     S
H289  C287   0.97001       .     S
C287  H289   0.97001       .     S
H291  C290   0.92967       .     S
C290  H291   0.92967       .     S
H293  C292   0.93027       .     S
C292  H293   0.93027       .     S
C297  C292   1.37280       .     S
C292  C297   1.37280       .     S
H295  C294   0.96966       .     S
C294  H295   0.96966       .     S
H296  C294   0.96972       .     S
C294  H296   0.96972       .     S
H298  C297   0.93025       .     S
C297  H298   0.93025       .     S
H300  C299   0.96990       .     S
C299  H300   0.96990       .     S
H301  C299   0.97019   1_565     S
C299  H301   0.97019   1_545     S
C310  C299   1.49823   1_665     S
C299  C310   1.49823   1_445     S
H303  C302   0.92977       .     S
C302  H303   0.92977       .     S
H305  C304   0.93000       .     S
C304  H305   0.93000       .     S
C313  C304   1.37747       .     S
C304  C313   1.37747       .     S
H307  C306   0.97016       .     S
C306  H307   0.97016       .     S
H308  C306   0.97022       .     S
C306  H308   0.97022       .     S
H311  C310   0.96962   1_455     S
C310  H311   0.96962   1_655     S
H312  C310   0.96995       .     S
C310  H312   0.96995       .     S
H314  C313   0.93004       .     S
C313  H314   0.93004       .     S
H316  C315   0.93066       .     S
C315  H316   0.93066       .     S
C318  C315   1.38441       .     S
C315  C318   1.38441       .     S
H319  C318   0.93019       .     S
C318  H319   0.93019       .     S
H321  C320   0.93051       .     S
C320  H321   0.93051       .     S
C322  C320   1.38768       .     S
C320  C322   1.38768       .     S
H323  C322   0.93022       .     S
C322  H323   0.93022       .     S
O327  Na325  2.21658       .     S
Na325 O327   2.21658       .     S
O338  Na325  2.28230       .     S
Na325 O338   2.28230       .     S
C328  N326   1.33276       .     S
N326  C328   1.33276       .     S
C330  N326   1.44206       .     S
N326  C330   1.44206       .     S
C334  N326   1.42633       .     S
N326  C334   1.42633       .     S
C328  O327   1.20506       .     S
O327  C328   1.20506       .     S
H329  C328   0.92941       .     S
C328  H329   0.92941       .     S
H331  C330   0.96103       .     S
C330  H331   0.96103       .     S
H332  C330   0.95957       .     S
C330  H332   0.95957       .     S
H333  C330   0.95952       .     S
C330  H333   0.95952       .     S
H335  C334   0.95998       .     S
C334  H335   0.95998       .     S
H336  C334   0.96017       .     S
C334  H336   0.96017       .     S
H337  C334   0.95987       .     S
C334  H337   0.95987       .     S
C340  O338   1.21841       .     S
O338  C340   1.21841       .     S
C340  N339   1.30965   1_545     S
N339  C340   1.30965   1_565     S
C342  N339   1.44980       .     S
N339  C342   1.44980       .     S
C346  N339   1.42905       .     S
N339  C346   1.42905       .     S
H341  C340   0.92935       .     S
C340  H341   0.92935       .     S
H343  C342   0.96062       .     S
C342  H343   0.96062       .     S
H344  C342   0.95974       .     S
C342  H344   0.95974       .     S
H345  C342   0.95956       .     S
C342  H345   0.95956       .     S
H347  C346   0.96029   1_545     S
C346  H347   0.96029   1_565     S
H348  C346   0.95981       .     S
C346  H348   0.95981       .     S
H349  C346   0.96016       .     S
C346  H349   0.96016       .     S
