data_I
_chemical_name_common  '/data/user2/wty/HOF/MOFDiff/mofdiff/data/test/191-demsoh'
_cell_length_a 41.31400
_cell_length_b  7.50030
_cell_length_c 37.85230
_cell_angle_alpha 90.00000
_cell_angle_beta  117.18500
_cell_angle_gamma 90.00000
_space_group_name_H-M_alt      'P 1'


loop_
_space_group_symop_operation_xyz
  'x, y, z' 

loop_
_atom_site_label
_atom_site_fract_x
_atom_site_fract_y
_atom_site_fract_z
_atom_site_type_symbol
O0     0.44455  0.66569  0.45249     O
O1     0.47688   0.5321  0.51097     O
O2     0.38915   0.8325   0.7743     O
O3     0.34936   0.6215  0.76481     O
C4      0.4487  0.61569  0.48496     C
C5     0.41963   0.6484  0.49777     C
C6     0.39159   0.7673  0.47682     C
H7     0.39123  0.82974  0.45542     H
C8     0.36409  0.79339  0.48768     C
H9       0.346  0.87703  0.47411     H
C10    0.36313   0.6962  0.51863     C
C11      0.392   0.5806  0.54025     C
H12    0.39245  0.51814  0.56169     H
C13    0.42006   0.5582  0.53002     C
H14    0.43929  0.48209   0.5449     H
C15    0.24895   0.7104  0.43285     C
H16    0.24253  0.69592  0.40606     H
C17     0.2842  0.69611   0.4598     C
H18    0.30132  0.66951  0.45103     H
C19    0.29619  0.72051  0.50131     C
C20    0.33314   0.7156  0.52989     C
C21    0.34199   0.7226   0.5699     C
H22    0.36638  0.71724   0.5885     H
C23    0.31578   0.7374  0.58342     C
C24    0.27894   0.7528  0.55553     C
C25    0.26876   0.7437   0.5144     C
C26    0.32781   0.7347   0.6268     C
C27    0.35616  0.84501  0.65195     C
H28    0.36684  0.92302  0.64123     H
C29    0.36861  0.83981   0.6926     C
H30    0.38763  0.91368  0.70905     H
C31     0.3529   0.7257  0.70873     C
C32    0.32406   0.6138  0.68365     C
H33    0.31311  0.53755  0.69438     H
C34    0.31214  0.61809  0.64313     C
H35    0.29352  0.54236  0.62665     H
C36     0.3664   0.7288  0.75215     C
O37    0.05545   0.8343  0.54751     O
O38    0.02312  0.96789  0.48903     O
O39    0.11085  0.66751   0.2257     O
O40    0.15064   0.8785  0.23519     O
C41     0.0513   0.8843  0.51504     C
C42    0.08037  0.85161  0.50223     C
C43    0.10841   0.7327  0.52318     C
H44    0.10877  0.67027  0.54458     H
C45    0.13591   0.7066  0.51232     C
H46      0.154  0.62296  0.52589     H
C47    0.13687   0.8038  0.48137     C
C48      0.108   0.9194  0.45975     C
H49    0.10755  0.98185  0.43831     H
C50    0.07994   0.9418  0.46998     C
H51    0.06072  0.01792   0.4551     H
C52    0.25105   0.7896  0.56715     C
H53    0.25747  0.80407  0.59394     H
C54     0.2158   0.8039   0.5402     C
H55    0.19868   0.8305  0.54897     H
C56    0.20381   0.7795  0.49869     C
C57    0.16686   0.7844  0.47011     C
C58    0.15801   0.7774   0.4301     C
H59    0.13362  0.78277   0.4115     H
C60    0.18422   0.7626  0.41658     C
C61    0.22106   0.7472  0.44447     C
C62    0.23124   0.7563   0.4856     C
C63    0.17219   0.7653   0.3732     C
C64    0.14384    0.655  0.34805     C
H65    0.13316  0.57698  0.35877     H
C66    0.13139   0.6602   0.3074     C
H67    0.11237  0.58632  0.29095     H
C68     0.1471   0.7743  0.29127     C
C69    0.17594  0.88621  0.31635     C
H70    0.18689  0.96245  0.30563     H
C71    0.18786   0.8819  0.35687     C
H72    0.20648  0.95764  0.37335     H
C73     0.1336   0.7712  0.24785     C
H74    0.35543  0.65295  0.80051     H
H75    0.14457  0.84705   0.1995     H
H76        0.5  0.49999      0.5     H
H77        0.0  0.99999      0.5     H
O78    0.55545  0.33431  0.54751     O
O79    0.52312   0.4679  0.48903     O
O80    0.61085   0.1675   0.2257     O
O81    0.65064   0.3785  0.23519     O
C82     0.5513  0.38431  0.51504     C
C83    0.58037   0.3516  0.50223     C
C84    0.60841   0.2327  0.52318     C
H85    0.60877  0.17026  0.54458     H
C86    0.63591  0.20661  0.51232     C
H87      0.654  0.12297  0.52589     H
C88    0.63687   0.3038  0.48137     C
C89      0.608   0.4194  0.45975     C
H90    0.60755  0.48186  0.43831     H
C91    0.57994   0.4418  0.46998     C
H92    0.56072  0.51791   0.4551     H
C93    0.75105   0.2896  0.56715     C
H94    0.75747  0.30408  0.59394     H
C95     0.7158   0.3039   0.5402     C
H96    0.69868  0.33049  0.54897     H
C97    0.70381   0.2795  0.49869     C
C98    0.66686   0.2844  0.47011     C
C99    0.65801   0.2774   0.4301     C
H100   0.63362  0.28276   0.4115     H
C101   0.68422   0.2626  0.41658     C
C102   0.72106   0.2472  0.44447     C
C103   0.73124   0.2563   0.4856     C
C104   0.67219   0.2653   0.3732     C
C105   0.64384  0.15499  0.34805     C
H106   0.63316  0.07698  0.35877     H
C107   0.63139  0.16019   0.3074     C
H108   0.61237  0.08632  0.29095     H
C109    0.6471   0.2743  0.29127     C
C110   0.67594   0.3862  0.31635     C
H111   0.68689  0.46245  0.30563     H
C112   0.68786   0.3819  0.35687     C
H113   0.70648  0.45764  0.37335     H
C114    0.6336   0.2712  0.24785     C
O115   0.94455   0.1657  0.45249     O
O116   0.97688  0.03211  0.51097     O
O117   0.88915  0.33249   0.7743     O
O118   0.84936   0.1215  0.76481     O
C119    0.9487   0.1157  0.48496     C
C120   0.91963  0.14839  0.49777     C
C121   0.89159   0.2673  0.47682     C
H122   0.89123  0.32973  0.45542     H
C123   0.86409   0.2934  0.48768     C
H124     0.846  0.37704  0.47411     H
C125   0.86313  0.19621  0.51863     C
C126     0.892   0.0806  0.54025     C
H127   0.89245  0.01815  0.56169     H
C128   0.92006   0.0582  0.53002     C
H129   0.93929  0.98208   0.5449     H
C130   0.74895  0.21041  0.43285     C
H131   0.74253  0.19592  0.40606     H
C132    0.7842   0.1961   0.4598     C
H133   0.80132   0.1695  0.45103     H
C134   0.79619   0.2205  0.50131     C
C135   0.83314   0.2156  0.52989     C
C136   0.84199   0.2226   0.5699     C
H137   0.86638  0.21723   0.5885     H
C138   0.81578   0.2374  0.58342     C
C139   0.77894   0.2528  0.55553     C
C140   0.76876   0.2437   0.5144     C
C141   0.82781   0.2347   0.6268     C
C142   0.85616    0.345  0.65195     C
H143   0.86684  0.42302  0.64123     H
C144   0.86861   0.3398   0.6926     C
H145   0.88763  0.41368  0.70905     H
C146    0.8529   0.2257  0.70873     C
C147   0.82406   0.1138  0.68365     C
H148   0.81311  0.03755  0.69438     H
C149   0.81214   0.1181  0.64313     C
H150   0.79352  0.04236  0.62665     H
C151    0.8664   0.2288  0.75215     C
H152   0.64457  0.34705   0.1995     H
H153   0.85543  0.15295  0.80051     H
O154   0.63782   0.3154  0.16334     O
O155   0.67918   0.1069  0.19143     O
O156   0.50639   0.1025  0.80791     O
O157   0.53122   0.2691  0.77894     O
C158   0.66282  0.20721  0.16509     C
C159   0.66738   0.2101  0.12757     C
C160   0.69307   0.0988  0.12573     C
H161   0.70554  0.01935   0.1464     H
C162   0.70071   0.1028  0.09383     C
H163   0.71829   0.0264  0.09348     H
C164   0.68247  0.21961  0.06206     C
C165   0.65587  0.32949  0.06321     C
H166    0.6429  0.40678  0.04222     H
C167   0.64855  0.32449   0.0957     C
H168   0.63072  0.39897  0.09609     H
C169   0.79052   0.2939  0.07373     C
H170   0.80958  0.31732  0.09871     H
C171   0.75653   0.2761  0.06987     C
H172   0.75285   0.2855  0.09227     H
C173   0.72595    0.243  0.03196     C
C174    0.6903   0.2244  0.02758     C
C175   0.66152   0.2127   0.9895     C
H176   0.63801  0.20478  0.98674     H
C177   0.66611  0.21221  0.95547     C
C178   0.70191   0.2222  0.95926     C
C179   0.73196   0.2407  0.99786     C
C180     0.633  0.20301  0.91648     C
C181   0.60421   0.0914   0.9122     C
H182    0.6066  0.01943  0.93327     H
C183   0.57228   0.0872  0.87693     C
H184   0.55353  0.01175  0.87456     H
C185   0.56785   0.1921  0.84554     C
C186   0.59619   0.3039  0.84886     C
H187   0.59357  0.37446  0.82751     H
C188   0.62831  0.30909   0.8843     C
H189   0.64699  0.38475  0.88653     H
C190   0.53195  0.18621  0.80827     C
O191   0.86218  0.18461  0.83666     O
O192   0.82082   0.3931  0.80857     O
O193   0.99361   0.3975  0.19209     O
O194   0.96878   0.2309  0.22106     O
C195   0.83718   0.2928  0.83491     C
C196   0.83262   0.2899  0.87243     C
C197   0.80693   0.4012  0.87427     C
H198   0.79446  0.48066   0.8536     H
C199   0.79929   0.3972  0.90617     C
H200   0.78171  0.47361  0.90652     H
C201   0.81753   0.2804  0.93794     C
C202   0.84413   0.1705  0.93679     C
H203    0.8571  0.09322  0.95778     H
C204   0.85145   0.1755   0.9043     C
H205   0.86928  0.10104  0.90391     H
C206   0.70948   0.2061  0.92627     C
H207   0.69042  0.18267  0.90129     H
C208   0.74347   0.2239  0.93013     C
H209   0.74715   0.2145  0.90773     H
C210   0.77405    0.257  0.96804     C
C211    0.8097   0.2756  0.97242     C
C212   0.83848   0.2873   0.0105     C
H213   0.86199  0.29523  0.01326     H
C214   0.83389   0.2878  0.04453     C
C215   0.79809   0.2778  0.04074     C
C216   0.76804   0.2593  0.00214     C
C217     0.867    0.297  0.08352     C
C218   0.89579   0.4086   0.0878     C
H219   0.89339  0.48058  0.06673     H
C220   0.92772   0.4128  0.12307     C
H221   0.94647  0.48826  0.12544     H
C222   0.93215  0.30789  0.15446     C
C223   0.90381   0.1961  0.15114     C
H224   0.90643  0.12554  0.17249     H
C225   0.87169   0.1909   0.1157     C
H226   0.85301  0.11525  0.11347     H
C227   0.96805   0.3138  0.19173     C
H228       0.0  0.23093  0.24999     H
O229   0.36218   0.3154  0.33666     O
O230   0.32082   0.1069  0.30857     O
O231   0.49361   0.1025  0.69209     O
O232   0.46878   0.2691  0.72106     O
C233   0.33718  0.20721  0.33491     C
C234   0.33262   0.2101  0.37243     C
C235   0.30693   0.0988  0.37427     C
H236   0.29446  0.01935   0.3536     H
C237   0.29929   0.1028  0.40617     C
H238   0.28171   0.0264  0.40652     H
C239   0.31753  0.21961  0.43794     C
C240   0.34413  0.32949  0.43679     C
H241    0.3571  0.40678  0.45778     H
C242   0.35145  0.32449   0.4043     C
H243   0.36928  0.39897  0.40391     H
C244   0.20948   0.2939  0.42627     C
H245   0.19042  0.31732  0.40129     H
C246   0.24347   0.2761  0.43013     C
H247   0.24715   0.2855  0.40773     H
C248   0.27405    0.243  0.46804     C
C249    0.3097   0.2244  0.47242     C
C250   0.33848   0.2127   0.5105     C
H251   0.36199  0.20478  0.51326     H
C252   0.33389  0.21221  0.54453     C
C253   0.29809   0.2222  0.54074     C
C254   0.26804   0.2407  0.50214     C
C255     0.367  0.20301  0.58352     C
C256   0.39579   0.0914   0.5878     C
H257    0.3934  0.01943  0.56673     H
C258   0.42772   0.0872  0.62307     C
H259   0.44647  0.01175  0.62544     H
C260   0.43215   0.1921  0.65446     C
C261   0.40381   0.3039  0.65114     C
H262   0.40643  0.37446  0.67249     H
C263   0.37169  0.30909   0.6157     C
H264   0.35301  0.38475  0.61347     H
C265   0.46805  0.18621  0.69173     C
O266   0.13782  0.18461  0.66334     O
O267   0.17918   0.3931  0.69143     O
O268   0.00639   0.3975  0.30791     O
O269   0.03122   0.2309  0.27894     O
C270   0.16282   0.2928  0.66509     C
C271   0.16738   0.2899  0.62757     C
C272   0.19307   0.4012  0.62573     C
H273   0.20554  0.48066   0.6464     H
C274   0.20071   0.3972  0.59383     C
H275   0.21829  0.47361  0.59348     H
C276   0.18247   0.2804  0.56206     C
C277   0.15587   0.1705  0.56321     C
H278    0.1429  0.09322  0.54222     H
C279   0.14855   0.1755   0.5957     C
H280   0.13072  0.10104  0.59609     H
C281   0.29052   0.2061  0.57373     C
H282   0.30958  0.18267  0.59871     H
C283   0.25653   0.2239  0.56987     C
H284   0.25285   0.2145  0.59227     H
C285   0.22595    0.257  0.53196     C
C286    0.1903   0.2756  0.52758     C
C287   0.16152   0.2873   0.4895     C
H288   0.13801  0.29523  0.48674     H
C289   0.16611   0.2878  0.45547     C
C290   0.20191   0.2778  0.45926     C
C291   0.23196   0.2593  0.49786     C
C292     0.133    0.297  0.41648     C
C293   0.10421   0.4086   0.4122     C
H294   0.10661  0.48058  0.43327     H
C295   0.07228   0.4128  0.37693     C
H296   0.05353  0.48826  0.37456     H
C297   0.06785  0.30789  0.34554     C
C298   0.09619   0.1961  0.34886     C
H299   0.09357  0.12554  0.32751     H
C300   0.12831   0.1909   0.3843     C
H301   0.14699  0.11525  0.38654     H
C302   0.03195   0.3138  0.30827     C
H303       0.5  0.26907  0.75001     H
O304   0.63782   0.6846  0.66334     O
O305   0.67918   0.8931  0.69143     O
O306   0.50639   0.8975  0.30791     O
O307   0.53122   0.7309  0.27894     O
C308   0.66282   0.7928  0.66509     C
C309   0.66738   0.7899  0.62757     C
C310   0.69307   0.9012  0.62573     C
H311   0.70554  0.98065   0.6464     H
C312   0.70071   0.8972  0.59383     C
H313   0.71829   0.9736  0.59348     H
C314   0.68247   0.7804  0.56206     C
C315   0.65587  0.67051  0.56321     C
H316    0.6429  0.59322  0.54222     H
C317   0.64855  0.67551   0.5957     C
H318   0.63072  0.60103  0.59609     H
C319   0.79052  0.70611  0.57373     C
H320   0.80958  0.68268  0.59871     H
C321   0.75653   0.7239  0.56987     C
H322   0.75285   0.7145  0.59227     H
C323   0.72595    0.757  0.53196     C
C324    0.6903   0.7756  0.52758     C
C325   0.66152   0.7873   0.4895     C
H326   0.63801  0.79522  0.48674     H
C327   0.66611   0.7878  0.45547     C
C328   0.70191   0.7778  0.45926     C
C329   0.73196   0.7593  0.49786     C
C330     0.633    0.797  0.41648     C
C331   0.60421   0.9086   0.4122     C
H332    0.6066  0.98057  0.43327     H
C333   0.57228   0.9128  0.37693     C
H334   0.55353  0.98825  0.37456     H
C335   0.56785   0.8079  0.34554     C
C336   0.59619  0.69611  0.34886     C
H337   0.59357  0.62554  0.32751     H
C338   0.62831  0.69091   0.3843     C
H339   0.64699  0.61525  0.38653     H
C340   0.53195  0.81379  0.30827     C
O341   0.86218  0.81539  0.33666     O
O342   0.82082   0.6069  0.30857     O
O343   0.99361   0.6025  0.69209     O
O344   0.96878   0.7691  0.72106     O
C345   0.83718   0.7072  0.33491     C
C346   0.83262   0.7101  0.37243     C
C347   0.80693   0.5988  0.37427     C
H348   0.79446  0.51934   0.3536     H
C349   0.79929   0.6028  0.40617     C
H350   0.78171  0.52639  0.40652     H
C351   0.81753   0.7196  0.43794     C
C352   0.84413   0.8295  0.43679     C
H353    0.8571  0.90678  0.45778     H
C354   0.85145   0.8245   0.4043     C
H355   0.86928  0.89896  0.40391     H
C356   0.70948   0.7939  0.42627     C
H357   0.69042  0.81733  0.40129     H
C358   0.74347   0.7761  0.43013     C
H359   0.74715   0.7855  0.40773     H
C360   0.77405    0.743  0.46804     C
C361    0.8097   0.7244  0.47242     C
C362   0.83848  0.71271   0.5105     C
H363   0.86199  0.70477  0.51326     H
C364   0.83389   0.7122  0.54453     C
C365   0.79809   0.7222  0.54074     C
C366   0.76804   0.7407  0.50214     C
C367     0.867    0.703  0.58352     C
C368   0.89579   0.5914   0.5878     C
H369   0.89339  0.51942  0.56673     H
C370   0.92772   0.5872  0.62307     C
H371   0.94647  0.51174  0.62544     H
C372   0.93215  0.69211  0.65446     C
C373   0.90381   0.8039  0.65114     C
H374   0.90643  0.87446  0.67249     H
C375   0.87169   0.8091   0.6157     C
H376   0.85301  0.88475  0.61347     H
C377   0.96805   0.6862  0.69173     C
H378       0.0  0.76907  0.75001     H
O379   0.36218   0.6846  0.83666     O
O380   0.32082   0.8931  0.80857     O
O381   0.49361   0.8975  0.19209     O
O382   0.46878   0.7309  0.22106     O
C383   0.33718   0.7928  0.83491     C
C384   0.33262   0.7899  0.87243     C
C385   0.30693   0.9012  0.87427     C
H386   0.29446  0.98065   0.8536     H
C387   0.29929   0.8972  0.90617     C
H388   0.28171   0.9736  0.90652     H
C389   0.31753   0.7804  0.93794     C
C390   0.34413  0.67051  0.93679     C
H391    0.3571  0.59322  0.95778     H
C392   0.35145  0.67551   0.9043     C
H393   0.36928  0.60103  0.90391     H
C394   0.20948  0.70611  0.92627     C
H395   0.19042  0.68268  0.90129     H
C396   0.24347   0.7239  0.93013     C
H397   0.24715   0.7145  0.90773     H
C398   0.27405    0.757  0.96804     C
C399    0.3097   0.7756  0.97242     C
C400   0.33848   0.7873   0.0105     C
H401   0.36199  0.79522  0.01326     H
C402   0.33389   0.7878  0.04453     C
C403   0.29809   0.7778  0.04074     C
C404   0.26804   0.7593  0.00214     C
C405     0.367    0.797  0.08352     C
C406   0.39579   0.9086   0.0878     C
H407    0.3934  0.98057  0.06673     H
C408   0.42772   0.9128  0.12307     C
H409   0.44647  0.98825  0.12544     H
C410   0.43215   0.8079  0.15446     C
C411   0.40381   0.6961  0.15114     C
H412   0.40643  0.62553  0.17249     H
C413   0.37169  0.69091   0.1157     C
H414   0.35301  0.61525  0.11347     H
C415   0.46805  0.81379  0.19173     C
O416   0.13782  0.81539  0.16334     O
O417   0.17918   0.6069  0.19143     O
O418   0.00639   0.6025  0.80791     O
O419   0.03122   0.7691  0.77894     O
C420   0.16282   0.7072  0.16509     C
C421   0.16738   0.7101  0.12757     C
C422   0.19307   0.5988  0.12573     C
H423   0.20554  0.51934   0.1464     H
C424   0.20071   0.6028  0.09383     C
H425   0.21829  0.52639  0.09348     H
C426   0.18247   0.7196  0.06206     C
C427   0.15587   0.8295  0.06321     C
H428    0.1429  0.90678  0.04222     H
C429   0.14855   0.8245   0.0957     C
H430   0.13072  0.89896  0.09609     H
C431   0.29052   0.7939  0.07373     C
H432   0.30958  0.81733  0.09871     H
C433   0.25653   0.7761  0.06987     C
H434   0.25285   0.7855  0.09227     H
C435   0.22595    0.743  0.03196     C
C436    0.1903   0.7244  0.02758     C
C437   0.16152  0.71271   0.9895     C
H438   0.13801  0.70477  0.98674     H
C439   0.16611   0.7122  0.95547     C
C440   0.20191   0.7222  0.95926     C
C441   0.23196   0.7407  0.99786     C
C442     0.133    0.703  0.91648     C
C443   0.10421   0.5914   0.9122     C
H444   0.10661  0.51942  0.93327     H
C445   0.07228   0.5872  0.87693     C
H446   0.05353  0.51174  0.87456     H
C447   0.06785  0.69211  0.84554     C
C448   0.09619   0.8039  0.84886     C
H449   0.09357  0.87446  0.82751     H
C450   0.12831   0.8091   0.8843     C
H451   0.14699  0.88475  0.88654     H
C452   0.03195   0.6862  0.80827     C
H453       0.5  0.73093  0.24999     H
O454   0.55545  0.66569  0.04751     O
O455   0.52312   0.5321  0.98903     O
O456   0.61085   0.8325   0.7257     O
O457   0.65064   0.6215  0.73519     O
C458    0.5513  0.61569  0.01504     C
C459   0.58037   0.6484  0.00223     C
C460   0.60841   0.7673  0.02318     C
H461   0.60877  0.82974  0.04458     H
C462   0.63591  0.79339  0.01232     C
H463     0.654  0.87703  0.02589     H
C464   0.63687   0.6962  0.98137     C
C465     0.608   0.5806  0.95975     C
H466   0.60755  0.51814  0.93831     H
C467   0.57994   0.5582  0.96998     C
H468   0.56072  0.48209   0.9551     H
C469   0.75105   0.7104  0.06715     C
H470   0.75747  0.69592  0.09394     H
C471    0.7158  0.69611   0.0402     C
H472   0.69868  0.66951  0.04897     H
C473   0.70381  0.72051  0.99869     C
C474   0.66686   0.7156  0.97011     C
C475   0.65801   0.7226   0.9301     C
H476   0.63362  0.71724   0.9115     H
C477   0.68422   0.7374  0.91658     C
C478   0.72106   0.7528  0.94447     C
C479   0.73124   0.7437   0.9856     C
C480   0.67219   0.7347   0.8732     C
C481   0.64384  0.84501  0.84805     C
H482   0.63316  0.92302  0.85877     H
C483   0.63139  0.83981   0.8074     C
H484   0.61237  0.91368  0.79095     H
C485    0.6471   0.7257  0.79127     C
C486   0.67594   0.6138  0.81635     C
H487   0.68689  0.53755  0.80563     H
C488   0.68786  0.61809  0.85687     C
H489   0.70648  0.54236  0.87335     H
C490    0.6336   0.7288  0.74785     C
O491   0.94455   0.8343  0.95249     O
O492   0.97688  0.96789  0.01097     O
O493   0.88915  0.66751   0.2743     O
O494   0.84936   0.8785  0.26481     O
C495    0.9487   0.8843  0.98496     C
C496   0.91963  0.85161  0.99777     C
C497   0.89159   0.7327  0.97682     C
H498   0.89123  0.67027  0.95542     H
C499   0.86409   0.7066  0.98768     C
H500     0.846  0.62296  0.97411     H
C501   0.86313   0.8038  0.01863     C
C502     0.892   0.9194  0.04025     C
H503   0.89245  0.98185  0.06169     H
C504   0.92006   0.9418  0.03002     C
H505   0.93929  0.01792   0.0449     H
C506   0.74895   0.7896  0.93285     C
H507   0.74253  0.80407  0.90606     H
C508    0.7842   0.8039   0.9598     C
H509   0.80132   0.8305  0.95103     H
C510   0.79619   0.7795  0.00131     C
C511   0.83314   0.7844  0.02989     C
C512   0.84199   0.7774   0.0699     C
H513   0.86638  0.78277   0.0885     H
C514   0.81578   0.7626  0.08342     C
C515   0.77894   0.7472  0.05553     C
C516   0.76876   0.7563   0.0144     C
C517   0.82781   0.7653   0.1268     C
C518   0.85616    0.655  0.15195     C
H519   0.86684  0.57698  0.14123     H
C520   0.86861   0.6602   0.1926     C
H521   0.88763  0.58632  0.20906     H
C522    0.8529   0.7743  0.20873     C
C523   0.82406  0.88621  0.18365     C
H524   0.81311  0.96245  0.19438     H
C525   0.81214   0.8819  0.14313     C
H526   0.79352  0.95764  0.12665     H
C527    0.8664   0.7712  0.25215     C
H528   0.64457  0.65295  0.69949     H
H529       0.5  0.49999      0.0     H
H530       0.0  0.99999      0.0     H
O531   0.44455  0.33431  0.95249     O
O532   0.47688   0.4679  0.01097     O
O533   0.38915   0.1675   0.2743     O
O534   0.34936   0.3785  0.26481     O
C535    0.4487  0.38431  0.98496     C
C536   0.41963   0.3516  0.99777     C
C537   0.39159   0.2327  0.97682     C
H538   0.39123  0.17026  0.95542     H
C539   0.36409  0.20661  0.98768     C
H540     0.346  0.12297  0.97411     H
C541   0.36313   0.3038  0.01863     C
C542     0.392   0.4194  0.04025     C
H543   0.39245  0.48186  0.06169     H
C544   0.42006   0.4418  0.03002     C
H545   0.43928  0.51791   0.0449     H
C546   0.24895   0.2896  0.93285     C
H547   0.24253  0.30408  0.90606     H
C548    0.2842   0.3039   0.9598     C
H549   0.30132  0.33049  0.95103     H
C550   0.29619   0.2795  0.00131     C
C551   0.33314   0.2844  0.02989     C
C552   0.34199   0.2774   0.0699     C
H553   0.36638  0.28276   0.0885     H
C554   0.31578   0.2626  0.08342     C
C555   0.27894   0.2472  0.05553     C
C556   0.26876   0.2563   0.0144     C
C557   0.32781   0.2653   0.1268     C
C558   0.35616  0.15499  0.15195     C
H559   0.36684  0.07698  0.14123     H
C560   0.36861  0.16019   0.1926     C
H561   0.38763  0.08632  0.20906     H
C562    0.3529   0.2743  0.20873     C
C563   0.32406   0.3862  0.18365     C
H564   0.31311  0.46245  0.19437     H
C565   0.31214   0.3819  0.14313     C
H566   0.29352  0.45764  0.12665     H
C567    0.3664   0.2712  0.25215     C
O568   0.05545   0.1657  0.04751     O
O569   0.02312  0.03211  0.98903     O
O570   0.11085  0.33249   0.7257     O
O571   0.15064   0.1215  0.73519     O
C572    0.0513   0.1157  0.01504     C
C573   0.08037  0.14839  0.00223     C
C574   0.10841   0.2673  0.02318     C
H575   0.10877  0.32973  0.04458     H
C576   0.13591   0.2934  0.01232     C
H577     0.154  0.37704  0.02589     H
C578   0.13687  0.19621  0.98137     C
C579     0.108   0.0806  0.95975     C
H580   0.10755  0.01815  0.93831     H
C581   0.07994   0.0582  0.96998     C
H582   0.06072  0.98208   0.9551     H
C583   0.25105  0.21041  0.06715     C
H584   0.25747  0.19592  0.09394     H
C585    0.2158   0.1961   0.0402     C
H586   0.19868   0.1695  0.04897     H
C587   0.20381   0.2205  0.99869     C
C588   0.16686   0.2156  0.97011     C
C589   0.15801   0.2226   0.9301     C
H590   0.13362  0.21723   0.9115     H
C591   0.18422   0.2374  0.91658     C
C592   0.22106   0.2528  0.94447     C
C593   0.23124   0.2437   0.9856     C
C594   0.17219   0.2347   0.8732     C
C595   0.14384    0.345  0.84805     C
H596   0.13316  0.42302  0.85877     H
C597   0.13139   0.3398   0.8074     C
H598   0.11237  0.41368  0.79095     H
C599    0.1471   0.2257  0.79127     C
C600   0.17594  0.11379  0.81635     C
H601   0.18689  0.03755  0.80563     H
C602   0.18786   0.1181  0.85687     C
H603   0.20648  0.04236  0.87335     H
C604    0.1336   0.2288  0.74785     C
H605   0.35543  0.34705  0.30051     H
H606   0.14457  0.15295  0.69949     H
H607   0.85543  0.84705  0.30051     H
loop_
_geom_bond_atom_site_label_1
_geom_bond_atom_site_label_2
_geom_bond_distance
_geom_bond_site_symmetry_2
_ccdc_geom_bond_type
H74   O379   1.28758       .     S
O379  H74    1.28758       .     S
H74   O380   2.40428       .     S
O380  H74    2.40428       .     S
H75   O416   1.28796       .     S
O416  H75    1.28796       .     S
H75   O417   2.40443       .     S
O417  H75    2.40443       .     S
H76   O79    1.22684       .     S
O79   H76    1.22684       .     S
H76   O78    2.50239       .     S
O78   H76    2.50239       .     S
H77   O116   1.22688   1_465     S
O116  H77    1.22688   1_645     S
H77   O115   2.50250   1_465     S
O115  H77    2.50250   1_645     S
H152  O154   1.28794       .     S
O154  H152   1.28794       .     S
H152  O155   2.40443       .     S
O155  H152   2.40443       .     S
H153  O191   1.28759       .     S
O191  H153   1.28759       .     S
H153  O192   2.40428       .     S
O192  H153   2.40428       .     S
H228  O194   1.25389   1_455     S
O194  H228   1.25389   1_655     S
H228  O193   2.43005   1_455     S
O193  H228   2.43005   1_655     S
H303  O232   1.25419       .     S
O232  H303   1.25419       .     S
H303  O231   2.43070       .     S
O231  H303   2.43070       .     S
H378  O344   1.25419   1_455     S
O344  H378   1.25419   1_655     S
H378  O343   2.43070   1_455     S
O343  H378   2.43070   1_655     S
H453  O382   1.25388       .     S
O382  H453   1.25388       .     S
H453  O381   2.43005       .     S
O381  H453   2.43005       .     S
H528  O304   1.28758       .     S
O304  H528   1.28758       .     S
H528  O305   2.40428       .     S
O305  H528   2.40428       .     S
H529  O455   1.22687   1_554     S
O455  H529   1.22687   1_556     S
H529  O454   2.50246       .     S
O454  H529   2.50246       .     S
H530  O569   1.22688   1_564     S
O569  H530   1.22688   1_546     S
H530  O568   2.50250   1_565     S
O568  H530   2.50250   1_545     S
H605  O229   1.28758       .     S
O229  H605   1.28758       .     S
H605  O230   2.40428       .     S
O230  H605   2.40428       .     S
H606  O266   1.28759       .     S
O266  H606   1.28759       .     S
H606  O267   2.40428       .     S
O267  H606   2.40428       .     S
H607  O341   1.28759       .     S
O341  H607   1.28759       .     S
H607  O342   2.40428       .     S
O342  H607   2.40428       .     S
O0    C4     1.21987       .     S
C4    O0     1.21987       .     S
O1    C4     1.29247       .     S
C4    O1     1.29247       .     S
O2    C36    1.21295       .     S
C36   O2     1.21295       .     S
O3    C36    1.29660       .     S
C36   O3     1.29660       .     S
C4    C5     1.50659       .     S
C5    C4     1.50659       .     S
C5    C6     1.38807       .     S
C6    C5     1.38807       .     S
C5    C13    1.38866       .     S
C13   C5     1.38866       .     S
C6    H7     0.92989       .     S
H7    C6     0.92989       .     S
C6    C8     1.38738       .     S
C8    C6     1.38738       .     S
C8    H9     0.93015       .     S
H9    C8     0.93015       .     S
C8    C10    1.39567       .     S
C10   C8     1.39567       .     S
C10   C11    1.39721       .     S
C11   C10    1.39721       .     S
C10   C20    1.49013       .     S
C20   C10    1.49013       .     S
C11   H12    0.92986       .     S
H12   C11    0.92986       .     S
C11   C13    1.39006       .     S
C13   C11    1.39006       .     S
C13   H14    0.93028       .     S
H14   C13    0.93028       .     S
C15   H16    0.92990       .     S
H16   C15    0.92990       .     S
C15   C17    1.34742       .     S
C17   C15    1.34742       .     S
C15   C61    1.43541       .     S
C61   C15    1.43541       .     S
C17   H18    0.92995       .     S
H18   C17    0.92995       .     S
C17   C19    1.42706       .     S
C19   C17    1.42706       .     S
C19   C20    1.41176       .     S
C20   C19    1.41176       .     S
C19   C25    1.43981       .     S
C25   C19    1.43981       .     S
C20   C21    1.38712       .     S
C21   C20    1.38712       .     S
C21   H22    0.92975       .     S
H22   C21    0.92975       .     S
C21   C23    1.39754       .     S
C23   C21    1.39754       .     S
C23   C24    1.40577       .     S
C24   C23    1.40577       .     S
C23   C26    1.48257       .     S
C26   C23    1.48257       .     S
C24   C25    1.41672       .     S
C25   C24    1.41672       .     S
C24   C52    1.43541       .     S
C52   C24    1.43541       .     S
C25   C62    1.43391       .     S
C62   C25    1.43391       .     S
C26   C27    1.39420       .     S
C27   C26    1.39420       .     S
C26   C34    1.38989       .     S
C34   C26    1.38989       .     S
C27   H28    0.93020       .     S
H28   C27    0.93020       .     S
C27   C29    1.38221       .     S
C29   C27    1.38221       .     S
C29   H30    0.93009       .     S
H30   C29    0.93009       .     S
C29   C31    1.37427       .     S
C31   C29    1.37427       .     S
C31   C32    1.41129       .     S
C32   C31    1.41129       .     S
C31   C36    1.47488       .     S
C36   C31    1.47488       .     S
C32   H33    0.92982       .     S
H33   C32    0.92982       .     S
C32   C34    1.38053       .     S
C34   C32    1.38053       .     S
C34   H35    0.93008       .     S
H35   C34    0.93008       .     S
O37   C41    1.21987       .     S
C41   O37    1.21987       .     S
O38   C41    1.29247       .     S
C41   O38    1.29247       .     S
O39   C73    1.21291       .     S
C73   O39    1.21291       .     S
O40   C73    1.29660       .     S
C73   O40    1.29660       .     S
C41   C42    1.50656       .     S
C42   C41    1.50656       .     S
C42   C43    1.38812       .     S
C43   C42    1.38812       .     S
C42   C50    1.38863       .     S
C50   C42    1.38863       .     S
C43   H44    0.92985       .     S
H44   C43    0.92985       .     S
C43   C45    1.38739       .     S
C45   C43    1.38739       .     S
C45   H46    0.93014       .     S
H46   C45    0.93014       .     S
C45   C47    1.39570       .     S
C47   C45    1.39570       .     S
C47   C48    1.39721       .     S
C48   C47    1.39721       .     S
C47   C57    1.49013       .     S
C57   C47    1.49013       .     S
C48   H49    0.92982       .     S
H49   C48    0.92982       .     S
C48   C50    1.39006       .     S
C50   C48    1.39006       .     S
C50   H51    0.93008   1_565     S
H51   C50    0.93008   1_545     S
C52   H53    0.92989       .     S
H53   C52    0.92989       .     S
C52   C54    1.34743       .     S
C54   C52    1.34743       .     S
C54   H55    0.92995       .     S
H55   C54    0.92995       .     S
C54   C56    1.42706       .     S
C56   C54    1.42706       .     S
C56   C57    1.41176       .     S
C57   C56    1.41176       .     S
C56   C62    1.43982       .     S
C62   C56    1.43982       .     S
C57   C58    1.38712       .     S
C58   C57    1.38712       .     S
C58   H59    0.92975       .     S
H59   C58    0.92975       .     S
C58   C60    1.39754       .     S
C60   C58    1.39754       .     S
C60   C61    1.40577       .     S
C61   C60    1.40577       .     S
C60   C63    1.48257       .     S
C63   C60    1.48257       .     S
C61   C62    1.41671       .     S
C62   C61    1.41671       .     S
C63   C64    1.39416       .     S
C64   C63    1.39416       .     S
C63   C71    1.38984       .     S
C71   C63    1.38984       .     S
C64   H65    0.93025       .     S
H65   C64    0.93025       .     S
C64   C66    1.38221       .     S
C66   C64    1.38221       .     S
C66   H67    0.93014       .     S
H67   C66    0.93014       .     S
C66   C68    1.37423       .     S
C68   C66    1.37423       .     S
C68   C69    1.41134       .     S
C69   C68    1.41134       .     S
C68   C73    1.47488       .     S
C73   C68    1.47488       .     S
C69   H70    0.92953       .     S
H70   C69    0.92953       .     S
C69   C71    1.38053       .     S
C71   C69    1.38053       .     S
C71   H72    0.93013       .     S
H72   C71    0.93013       .     S
O78   C82    1.21987       .     S
C82   O78    1.21987       .     S
O79   C82    1.29247       .     S
C82   O79    1.29247       .     S
O80   C114   1.21295       .     S
C114  O80    1.21295       .     S
O81   C114   1.29660       .     S
C114  O81    1.29660       .     S
C82   C83    1.50659       .     S
C83   C82    1.50659       .     S
C83   C84    1.38807       .     S
C84   C83    1.38807       .     S
C83   C91    1.38866       .     S
C91   C83    1.38866       .     S
C84   H85    0.92989       .     S
H85   C84    0.92989       .     S
C84   C86    1.38738       .     S
C86   C84    1.38738       .     S
C86   H87    0.93014       .     S
H87   C86    0.93014       .     S
C86   C88    1.39567       .     S
C88   C86    1.39567       .     S
C88   C89    1.39721       .     S
C89   C88    1.39721       .     S
C88   C98    1.49013       .     S
C98   C88    1.49013       .     S
C89   H90    0.92986       .     S
H90   C89    0.92986       .     S
C89   C91    1.39006       .     S
C91   C89    1.39006       .     S
C91   H92    0.93004       .     S
H92   C91    0.93004       .     S
C93   H94    0.92990       .     S
H94   C93    0.92990       .     S
C93   C95    1.34743       .     S
C95   C93    1.34743       .     S
C93   C139   1.43541       .     S
C139  C93    1.43541       .     S
C95   H96    0.92994       .     S
H96   C95    0.92994       .     S
C95   C97    1.42706       .     S
C97   C95    1.42706       .     S
C97   C98    1.41176       .     S
C98   C97    1.41176       .     S
C97   C103   1.43982       .     S
C103  C97    1.43982       .     S
C98   C99    1.38712       .     S
C99   C98    1.38712       .     S
C99   H100   0.92975       .     S
H100  C99    0.92975       .     S
C99   C101   1.39754       .     S
C101  C99    1.39754       .     S
C101  C102   1.40577       .     S
C102  C101   1.40577       .     S
C101  C104   1.48256       .     S
C104  C101   1.48256       .     S
C102  C103   1.41671       .     S
C103  C102   1.41671       .     S
C102  C130   1.43540       .     S
C130  C102   1.43540       .     S
C103  C140   1.43392       .     S
C140  C103   1.43392       .     S
C104  C105   1.39421       .     S
C105  C104   1.39421       .     S
C104  C112   1.38984       .     S
C112  C104   1.38984       .     S
C105  H106   0.93020       .     S
H106  C105   0.93020       .     S
C105  C107   1.38221       .     S
C107  C105   1.38221       .     S
C107  H108   0.93009       .     S
H108  C107   0.93009       .     S
C107  C109   1.37427       .     S
C109  C107   1.37427       .     S
C109  C110   1.41129       .     S
C110  C109   1.41129       .     S
C109  C114   1.47488       .     S
C114  C109   1.47488       .     S
C110  H111   0.92958       .     S
H111  C110   0.92958       .     S
C110  C112   1.38053       .     S
C112  C110   1.38053       .     S
C112  H113   0.93013       .     S
H113  C112   0.93013       .     S
O115  C119   1.21987       .     S
C119  O115   1.21987       .     S
O116  C119   1.29246       .     S
C119  O116   1.29246       .     S
O117  C151   1.21291       .     S
C151  O117   1.21291       .     S
O118  C151   1.29660       .     S
C151  O118   1.29660       .     S
C119  C120   1.50657       .     S
C120  C119   1.50657       .     S
C120  C121   1.38812       .     S
C121  C120   1.38812       .     S
C120  C128   1.38863       .     S
C128  C120   1.38863       .     S
C121  H122   0.92985       .     S
H122  C121   0.92985       .     S
C121  C123   1.38739       .     S
C123  C121   1.38739       .     S
C123  H124   0.93014       .     S
H124  C123   0.93014       .     S
C123  C125   1.39567       .     S
C125  C123   1.39567       .     S
C125  C126   1.39726       .     S
C126  C125   1.39726       .     S
C125  C135   1.49012       .     S
C135  C125   1.49012       .     S
C126  H127   0.92982       .     S
H127  C126   0.92982       .     S
C126  C128   1.39005       .     S
C128  C126   1.39005       .     S
C128  H129   0.93033   1_545     S
H129  C128   0.93032   1_565     S
C130  H131   0.92990       .     S
H131  C130   0.92990       .     S
C130  C132   1.34743       .     S
C132  C130   1.34743       .     S
C132  H133   0.92995       .     S
H133  C132   0.92995       .     S
C132  C134   1.42706       .     S
C134  C132   1.42706       .     S
C134  C135   1.41176       .     S
C135  C134   1.41176       .     S
C134  C140   1.43982       .     S
C140  C134   1.43982       .     S
C135  C136   1.38712       .     S
C136  C135   1.38712       .     S
C136  H137   0.92975       .     S
H137  C136   0.92975       .     S
C136  C138   1.39754       .     S
C138  C136   1.39754       .     S
C138  C139   1.40577       .     S
C139  C138   1.40577       .     S
C138  C141   1.48257       .     S
C141  C138   1.48257       .     S
C139  C140   1.41671       .     S
C140  C139   1.41671       .     S
C141  C142   1.39416       .     S
C142  C141   1.39416       .     S
C141  C149   1.38984       .     S
C149  C141   1.38984       .     S
C142  H143   0.93025       .     S
H143  C142   0.93025       .     S
C142  C144   1.38221       .     S
C144  C142   1.38221       .     S
C144  H145   0.93014       .     S
H145  C144   0.93014       .     S
C144  C146   1.37423       .     S
C146  C144   1.37423       .     S
C146  C147   1.41129       .     S
C147  C146   1.41129       .     S
C146  C151   1.47488       .     S
C151  C146   1.47488       .     S
C147  H148   0.92982       .     S
H148  C147   0.92982       .     S
C147  C149   1.38053       .     S
C149  C147   1.38053       .     S
C149  H150   0.93013       .     S
H150  C149   0.93013       .     S
O154  C158   1.29117       .     S
C158  O154   1.29117       .     S
O155  C158   1.18372       .     S
C158  O155   1.18372       .     S
O156  C190   1.22325       .     S
C190  O156   1.22325       .     S
O157  C190   1.26071       .     S
C190  O157   1.26071       .     S
C158  C159   1.51574       .     S
C159  C158   1.51574       .     S
C159  C160   1.37686       .     S
C160  C159   1.37686       .     S
C159  C167   1.39250       .     S
C167  C159   1.39250       .     S
C160  H161   0.92971       .     S
H161  C160   0.92971       .     S
C160  C162   1.38087       .     S
C162  C160   1.38087       .     S
C162  H163   0.92996       .     S
H163  C162   0.92996       .     S
C162  C164   1.39770       .     S
C164  C162   1.39770       .     S
C164  C165   1.39014       .     S
C165  C164   1.39014       .     S
C164  C174   1.48159       .     S
C174  C164   1.48159       .     S
C165  H166   0.93028       .     S
H166  C165   0.93028       .     S
C165  C167   1.39469       .     S
C167  C165   1.39469       .     S
C167  H168   0.92996       .     S
H168  C167   0.92996       .     S
C169  H170   0.92987       .     S
H170  C169   0.92987       .     S
C169  C171   1.35043       .     S
C171  C169   1.35043       .     S
C169  C215   1.42429       .     S
C215  C169   1.42429       .     S
C171  H172   0.92994       .     S
H172  C171   0.92994       .     S
C171  C173   1.43541       .     S
C173  C171   1.43541       .     S
C173  C174   1.41177       .     S
C174  C173   1.41177       .     S
C173  C179   1.42157   1_554     S
C179  C173   1.42157   1_556     S
C174  C175   1.39037   1_554     S
C175  C174   1.39037   1_556     S
C175  H176   0.93012       .     S
H176  C175   0.93012       .     S
C175  C177   1.38506       .     S
C177  C175   1.38506       .     S
C177  C178   1.42123       .     S
C178  C177   1.42123       .     S
C177  C180   1.48641       .     S
C180  C177   1.48641       .     S
C178  C179   1.42755       .     S
C179  C178   1.42755       .     S
C178  C206   1.42429       .     S
C206  C178   1.42429       .     S
C179  C216   1.43072   1_556     S
C216  C179   1.43072   1_554     S
C180  C181   1.40202       .     S
C181  C180   1.40202       .     S
C180  C188   1.39235       .     S
C188  C180   1.39235       .     S
C181  H182   0.93019       .     S
H182  C181   0.93019       .     S
C181  C183   1.38359       .     S
C183  C181   1.38359       .     S
C183  H184   0.92998       .     S
H184  C183   0.92998       .     S
C183  C185   1.36587       .     S
C185  C183   1.36587       .     S
C185  C186   1.39834       .     S
C186  C185   1.39834       .     S
C185  C190   1.51000       .     S
C190  C185   1.51000       .     S
C186  H187   0.93003       .     S
H187  C186   0.93003       .     S
C186  C188   1.39121       .     S
C188  C186   1.39121       .     S
C188  H189   0.93017       .     S
H189  C188   0.93017       .     S
O191  C195   1.29117       .     S
C195  O191   1.29117       .     S
O192  C195   1.18367       .     S
C195  O192   1.18367       .     S
O193  C227   1.22321       .     S
C227  O193   1.22321       .     S
O194  C227   1.26075       .     S
C227  O194   1.26075       .     S
C195  C196   1.51574       .     S
C196  C195   1.51574       .     S
C196  C197   1.37686       .     S
C197  C196   1.37686       .     S
C196  C204   1.39255       .     S
C204  C196   1.39255       .     S
C197  H198   0.92976       .     S
H198  C197   0.92976       .     S
C197  C199   1.38087       .     S
C199  C197   1.38087       .     S
C199  H200   0.93001       .     S
H200  C199   0.93001       .     S
C199  C201   1.39765       .     S
C201  C199   1.39765       .     S
C201  C202   1.39023       .     S
C202  C201   1.39023       .     S
C201  C211   1.48159       .     S
C211  C201   1.48159       .     S
C202  H203   0.93024       .     S
H203  C202   0.93024       .     S
C202  C204   1.39469       .     S
C204  C202   1.39469       .     S
C204  H205   0.92987       .     S
H205  C204   0.92987       .     S
C206  H207   0.92988       .     S
H207  C206   0.92988       .     S
C206  C208   1.35043       .     S
C208  C206   1.35043       .     S
C208  H209   0.92994       .     S
H209  C208   0.92994       .     S
C208  C210   1.43541       .     S
C210  C208   1.43541       .     S
C210  C211   1.41177       .     S
C211  C210   1.41177       .     S
C210  C216   1.42157   1_556     S
C216  C210   1.42157   1_554     S
C211  C212   1.39037   1_556     S
C212  C211   1.39037   1_554     S
C212  H213   0.93013       .     S
H213  C212   0.93013       .     S
C212  C214   1.38506       .     S
C214  C212   1.38506       .     S
C214  C215   1.42123       .     S
C215  C214   1.42123       .     S
C214  C217   1.48641       .     S
C217  C214   1.48641       .     S
C215  C216   1.42755       .     S
C216  C215   1.42755       .     S
C217  C218   1.40198       .     S
C218  C217   1.40198       .     S
C217  C225   1.39244       .     S
C225  C217   1.39244       .     S
C218  H219   0.93012       .     S
H219  C218   0.93012       .     S
C218  C220   1.38359       .     S
C220  C218   1.38359       .     S
C220  H221   0.93002       .     S
H221  C220   0.93002       .     S
C220  C222   1.36591       .     S
C222  C220   1.36591       .     S
C222  C223   1.39829       .     S
C223  C222   1.39829       .     S
C222  C227   1.51000       .     S
C227  C222   1.51000       .     S
C223  H224   0.93003       .     S
H224  C223   0.93003       .     S
C223  C225   1.39121       .     S
C225  C223   1.39121       .     S
C225  H226   0.93012       .     S
H226  C225   0.93012       .     S
O229  C233   1.29117       .     S
C233  O229   1.29117       .     S
O230  C233   1.18372       .     S
C233  O230   1.18372       .     S
O231  C265   1.22325       .     S
C265  O231   1.22325       .     S
O232  C265   1.26071       .     S
C265  O232   1.26071       .     S
C233  C234   1.51574       .     S
C234  C233   1.51574       .     S
C234  C235   1.37686       .     S
C235  C234   1.37686       .     S
C234  C242   1.39250       .     S
C242  C234   1.39250       .     S
C235  H236   0.92971       .     S
H236  C235   0.92971       .     S
C235  C237   1.38087       .     S
C237  C235   1.38087       .     S
C237  H238   0.92996       .     S
H238  C237   0.92996       .     S
C237  C239   1.39770       .     S
C239  C237   1.39770       .     S
C239  C240   1.39014       .     S
C240  C239   1.39014       .     S
C239  C249   1.48159       .     S
C249  C239   1.48159       .     S
C240  H241   0.93028       .     S
H241  C240   0.93028       .     S
C240  C242   1.39469       .     S
C242  C240   1.39469       .     S
C242  H243   0.92997       .     S
H243  C242   0.92997       .     S
C244  H245   0.92987       .     S
H245  C244   0.92987       .     S
C244  C246   1.35042       .     S
C246  C244   1.35042       .     S
C244  C290   1.42429       .     S
C290  C244   1.42429       .     S
C246  H247   0.92994       .     S
H247  C246   0.92994       .     S
C246  C248   1.43541       .     S
C248  C246   1.43541       .     S
C248  C249   1.41177       .     S
C249  C248   1.41177       .     S
C248  C254   1.42157       .     S
C254  C248   1.42157       .     S
C249  C250   1.39037       .     S
C250  C249   1.39037       .     S
C250  H251   0.93013       .     S
H251  C250   0.93013       .     S
C250  C252   1.38506       .     S
C252  C250   1.38506       .     S
C252  C253   1.42122       .     S
C253  C252   1.42122       .     S
C252  C255   1.48641       .     S
C255  C252   1.48641       .     S
C253  C254   1.42755       .     S
C254  C253   1.42755       .     S
C253  C281   1.42429       .     S
C281  C253   1.42429       .     S
C254  C291   1.43072       .     S
C291  C254   1.43072       .     S
C255  C256   1.40202       .     S
C256  C255   1.40202       .     S
C255  C263   1.39235       .     S
C263  C255   1.39235       .     S
C256  H257   0.93019       .     S
H257  C256   0.93019       .     S
C256  C258   1.38359       .     S
C258  C256   1.38359       .     S
C258  H259   0.92997       .     S
H259  C258   0.92997       .     S
C258  C260   1.36587       .     S
C260  C258   1.36587       .     S
C260  C261   1.39834       .     S
C261  C260   1.39834       .     S
C260  C265   1.51000       .     S
C265  C260   1.51000       .     S
C261  H262   0.93004       .     S
H262  C261   0.93004       .     S
C261  C263   1.39121       .     S
C263  C261   1.39121       .     S
C263  H264   0.93017       .     S
H264  C263   0.93017       .     S
O266  C270   1.29117       .     S
C270  O266   1.29117       .     S
O267  C270   1.18367       .     S
C270  O267   1.18367       .     S
O268  C302   1.22321       .     S
C302  O268   1.22321       .     S
O269  C302   1.26075       .     S
C302  O269   1.26075       .     S
C270  C271   1.51574       .     S
C271  C270   1.51574       .     S
C271  C272   1.37686       .     S
C272  C271   1.37686       .     S
C271  C279   1.39255       .     S
C279  C271   1.39255       .     S
C272  H273   0.92976       .     S
H273  C272   0.92976       .     S
C272  C274   1.38087       .     S
C274  C272   1.38087       .     S
C274  H275   0.93001       .     S
H275  C274   0.93001       .     S
C274  C276   1.39765       .     S
C276  C274   1.39765       .     S
C276  C277   1.39023       .     S
C277  C276   1.39023       .     S
C276  C286   1.48159       .     S
C286  C276   1.48159       .     S
C277  H278   0.93024       .     S
H278  C277   0.93024       .     S
C277  C279   1.39469       .     S
C279  C277   1.39469       .     S
C279  H280   0.92988       .     S
H280  C279   0.92988       .     S
C281  H282   0.92988       .     S
H282  C281   0.92988       .     S
C281  C283   1.35043       .     S
C283  C281   1.35043       .     S
C283  H284   0.92994       .     S
H284  C283   0.92994       .     S
C283  C285   1.43541       .     S
C285  C283   1.43541       .     S
C285  C286   1.41177       .     S
C286  C285   1.41177       .     S
C285  C291   1.42157       .     S
C291  C285   1.42157       .     S
C286  C287   1.39037       .     S
C287  C286   1.39037       .     S
C287  H288   0.93013       .     S
H288  C287   0.93013       .     S
C287  C289   1.38506       .     S
C289  C287   1.38506       .     S
C289  C290   1.42123       .     S
C290  C289   1.42123       .     S
C289  C292   1.48641       .     S
C292  C289   1.48641       .     S
C290  C291   1.42755       .     S
C291  C290   1.42755       .     S
C292  C293   1.40198       .     S
C293  C292   1.40198       .     S
C292  C300   1.39244       .     S
C300  C292   1.39244       .     S
C293  H294   0.93012       .     S
H294  C293   0.93012       .     S
C293  C295   1.38359       .     S
C295  C293   1.38359       .     S
C295  H296   0.93002       .     S
H296  C295   0.93002       .     S
C295  C297   1.36591       .     S
C297  C295   1.36591       .     S
C297  C298   1.39829       .     S
C298  C297   1.39829       .     S
C297  C302   1.51000       .     S
C302  C297   1.51000       .     S
C298  H299   0.93003       .     S
H299  C298   0.93003       .     S
C298  C300   1.39121       .     S
C300  C298   1.39121       .     S
C300  H301   0.93002       .     S
H301  C300   0.93002       .     S
O304  C308   1.29121       .     S
C308  O304   1.29121       .     S
O305  C308   1.18367       .     S
C308  O305   1.18367       .     S
O306  C340   1.22325       .     S
C340  O306   1.22325       .     S
O307  C340   1.26071       .     S
C340  O307   1.26071       .     S
C308  C309   1.51574       .     S
C309  C308   1.51574       .     S
C309  C310   1.37686       .     S
C310  C309   1.37686       .     S
C309  C317   1.39250       .     S
C317  C309   1.39250       .     S
C310  H311   0.92971       .     S
H311  C310   0.92971       .     S
C310  C312   1.38087       .     S
C312  C310   1.38087       .     S
C312  H313   0.92996       .     S
H313  C312   0.92996       .     S
C312  C314   1.39765       .     S
C314  C312   1.39765       .     S
C314  C315   1.39019       .     S
C315  C314   1.39019       .     S
C314  C324   1.48159       .     S
C324  C314   1.48159       .     S
C315  H316   0.93029       .     S
H316  C315   0.93029       .     S
C315  C317   1.39469       .     S
C317  C315   1.39469       .     S
C317  H318   0.92996       .     S
H318  C317   0.92996       .     S
C319  H320   0.92988       .     S
H320  C319   0.92988       .     S
C319  C321   1.35042       .     S
C321  C319   1.35042       .     S
C319  C365   1.42429       .     S
C365  C319   1.42429       .     S
C321  H322   0.92994       .     S
H322  C321   0.92994       .     S
C321  C323   1.43541       .     S
C323  C321   1.43541       .     S
C323  C324   1.41177       .     S
C324  C323   1.41177       .     S
C323  C329   1.42157       .     S
C329  C323   1.42157       .     S
C324  C325   1.39037       .     S
C325  C324   1.39037       .     S
C325  H326   0.93012       .     S
H326  C325   0.93012       .     S
C325  C327   1.38506       .     S
C327  C325   1.38506       .     S
C327  C328   1.42123       .     S
C328  C327   1.42123       .     S
C327  C330   1.48641       .     S
C330  C327   1.48641       .     S
C328  C329   1.42755       .     S
C329  C328   1.42755       .     S
C328  C356   1.42429       .     S
C356  C328   1.42429       .     S
C329  C366   1.43072       .     S
C366  C329   1.43072       .     S
C330  C331   1.40198       .     S
C331  C330   1.40198       .     S
C330  C338   1.39240       .     S
C338  C330   1.39240       .     S
C331  H332   0.93019       .     S
H332  C331   0.93019       .     S
C331  C333   1.38359       .     S
C333  C331   1.38359       .     S
C333  H334   0.92998       .     S
H334  C333   0.92998       .     S
C333  C335   1.36587       .     S
C335  C333   1.36587       .     S
C335  C336   1.39829       .     S
C336  C335   1.39829       .     S
C335  C340   1.51000       .     S
C340  C335   1.51000       .     S
C336  H337   0.93008       .     S
H337  C336   0.93008       .     S
C336  C338   1.39121       .     S
C338  C336   1.39121       .     S
C338  H339   0.93017       .     S
H339  C338   0.93017       .     S
O341  C345   1.29117       .     S
C345  O341   1.29117       .     S
O342  C345   1.18367       .     S
C345  O342   1.18367       .     S
O343  C377   1.22321       .     S
C377  O343   1.22321       .     S
O344  C377   1.26074       .     S
C377  O344   1.26074       .     S
C345  C346   1.51574       .     S
C346  C345   1.51574       .     S
C346  C347   1.37686       .     S
C347  C346   1.37686       .     S
C346  C354   1.39255       .     S
C354  C346   1.39255       .     S
C347  H348   0.92976       .     S
H348  C347   0.92976       .     S
C347  C349   1.38087       .     S
C349  C347   1.38087       .     S
C349  H350   0.93001       .     S
H350  C349   0.93001       .     S
C349  C351   1.39765       .     S
C351  C349   1.39765       .     S
C351  C352   1.39023       .     S
C352  C351   1.39023       .     S
C351  C361   1.48160       .     S
C361  C351   1.48160       .     S
C352  H353   0.93024       .     S
H353  C352   0.93024       .     S
C352  C354   1.39469       .     S
C354  C352   1.39469       .     S
C354  H355   0.92987       .     S
H355  C354   0.92987       .     S
C356  H357   0.92988       .     S
H357  C356   0.92988       .     S
C356  C358   1.35043       .     S
C358  C356   1.35043       .     S
C358  H359   0.92994       .     S
H359  C358   0.92994       .     S
C358  C360   1.43541       .     S
C360  C358   1.43541       .     S
C360  C361   1.41177       .     S
C361  C360   1.41177       .     S
C360  C366   1.42157       .     S
C366  C360   1.42157       .     S
C361  C362   1.39037       .     S
C362  C361   1.39037       .     S
C362  H363   0.93013       .     S
H363  C362   0.93013       .     S
C362  C364   1.38506       .     S
C364  C362   1.38506       .     S
C364  C365   1.42123       .     S
C365  C364   1.42123       .     S
C364  C367   1.48641       .     S
C367  C364   1.48641       .     S
C365  C366   1.42755       .     S
C366  C365   1.42755       .     S
C367  C368   1.40198       .     S
C368  C367   1.40198       .     S
C367  C375   1.39244       .     S
C375  C367   1.39244       .     S
C368  H369   0.93012       .     S
H369  C368   0.93012       .     S
C368  C370   1.38359       .     S
C370  C368   1.38359       .     S
C370  H371   0.93002       .     S
H371  C370   0.93002       .     S
C370  C372   1.36591       .     S
C372  C370   1.36591       .     S
C372  C373   1.39829       .     S
C373  C372   1.39829       .     S
C372  C377   1.51001       .     S
C377  C372   1.51001       .     S
C373  H374   0.93004       .     S
H374  C373   0.93004       .     S
C373  C375   1.39121       .     S
C375  C373   1.39121       .     S
C375  H376   0.93012       .     S
H376  C375   0.93012       .     S
O379  C383   1.29121       .     S
C383  O379   1.29121       .     S
O380  C383   1.18367       .     S
C383  O380   1.18367       .     S
O381  C415   1.22325       .     S
C415  O381   1.22325       .     S
O382  C415   1.26071       .     S
C415  O382   1.26071       .     S
C383  C384   1.51574       .     S
C384  C383   1.51574       .     S
C384  C385   1.37686       .     S
C385  C384   1.37686       .     S
C384  C392   1.39250       .     S
C392  C384   1.39250       .     S
C385  H386   0.92971       .     S
H386  C385   0.92971       .     S
C385  C387   1.38087       .     S
C387  C385   1.38087       .     S
C387  H388   0.92996       .     S
H388  C387   0.92996       .     S
C387  C389   1.39765       .     S
C389  C387   1.39765       .     S
C389  C390   1.39019       .     S
C390  C389   1.39019       .     S
C389  C399   1.48160       .     S
C399  C389   1.48160       .     S
C390  H391   0.93029       .     S
H391  C390   0.93029       .     S
C390  C392   1.39469       .     S
C392  C390   1.39469       .     S
C392  H393   0.92997       .     S
H393  C392   0.92997       .     S
C394  H395   0.92988       .     S
H395  C394   0.92988       .     S
C394  C396   1.35042       .     S
C396  C394   1.35042       .     S
C394  C440   1.42429       .     S
C440  C394   1.42429       .     S
C396  H397   0.92994       .     S
H397  C396   0.92994       .     S
C396  C398   1.43541       .     S
C398  C396   1.43541       .     S
C398  C399   1.41177       .     S
C399  C398   1.41177       .     S
C398  C404   1.42157   1_556     S
C404  C398   1.42157   1_554     S
C399  C400   1.39037   1_556     S
C400  C399   1.39037   1_554     S
C400  H401   0.93013       .     S
H401  C400   0.93013       .     S
C400  C402   1.38507       .     S
C402  C400   1.38507       .     S
C402  C403   1.42123       .     S
C403  C402   1.42123       .     S
C402  C405   1.48641       .     S
C405  C402   1.48641       .     S
C403  C404   1.42755       .     S
C404  C403   1.42755       .     S
C403  C431   1.42429       .     S
C431  C403   1.42429       .     S
C404  C441   1.43072   1_554     S
C441  C404   1.43072   1_556     S
C405  C406   1.40198       .     S
C406  C405   1.40198       .     S
C405  C413   1.39240       .     S
C413  C405   1.39240       .     S
C406  H407   0.93019       .     S
H407  C406   0.93019       .     S
C406  C408   1.38359       .     S
C408  C406   1.38359       .     S
C408  H409   0.92998       .     S
H409  C408   0.92998       .     S
C408  C410   1.36587       .     S
C410  C408   1.36587       .     S
C410  C411   1.39834       .     S
C411  C410   1.39834       .     S
C410  C415   1.51000       .     S
C415  C410   1.51000       .     S
C411  H412   0.93008       .     S
H412  C411   0.93008       .     S
C411  C413   1.39121       .     S
C413  C411   1.39121       .     S
C413  H414   0.93017       .     S
H414  C413   0.93017       .     S
O416  C420   1.29117       .     S
C420  O416   1.29117       .     S
O417  C420   1.18367       .     S
C420  O417   1.18367       .     S
O418  C452   1.22321       .     S
C452  O418   1.22321       .     S
O419  C452   1.26074       .     S
C452  O419   1.26074       .     S
C420  C421   1.51574       .     S
C421  C420   1.51574       .     S
C421  C422   1.37686       .     S
C422  C421   1.37686       .     S
C421  C429   1.39255       .     S
C429  C421   1.39255       .     S
C422  H423   0.92976       .     S
H423  C422   0.92976       .     S
C422  C424   1.38087       .     S
C424  C422   1.38087       .     S
C424  H425   0.93001       .     S
H425  C424   0.93001       .     S
C424  C426   1.39765       .     S
C426  C424   1.39765       .     S
C426  C427   1.39023       .     S
C427  C426   1.39023       .     S
C426  C436   1.48160       .     S
C436  C426   1.48160       .     S
C427  H428   0.93024       .     S
H428  C427   0.93024       .     S
C427  C429   1.39469       .     S
C429  C427   1.39469       .     S
C429  H430   0.92987       .     S
H430  C429   0.92987       .     S
C431  H432   0.92988       .     S
H432  C431   0.92988       .     S
C431  C433   1.35043       .     S
C433  C431   1.35043       .     S
C433  H434   0.92994       .     S
H434  C433   0.92994       .     S
C433  C435   1.43541       .     S
C435  C433   1.43541       .     S
C435  C436   1.41177       .     S
C436  C435   1.41177       .     S
C435  C441   1.42157   1_554     S
C441  C435   1.42157   1_556     S
C436  C437   1.39037   1_554     S
C437  C436   1.39037   1_556     S
C437  H438   0.93014       .     S
H438  C437   0.93014       .     S
C437  C439   1.38506       .     S
C439  C437   1.38506       .     S
C439  C440   1.42123       .     S
C440  C439   1.42123       .     S
C439  C442   1.48641       .     S
C442  C439   1.48641       .     S
C440  C441   1.42755       .     S
C441  C440   1.42755       .     S
C442  C443   1.40198       .     S
C443  C442   1.40198       .     S
C442  C450   1.39244       .     S
C450  C442   1.39244       .     S
C443  H444   0.93012       .     S
H444  C443   0.93012       .     S
C443  C445   1.38359       .     S
C445  C443   1.38359       .     S
C445  H446   0.93002       .     S
H446  C445   0.93002       .     S
C445  C447   1.36591       .     S
C447  C445   1.36591       .     S
C447  C448   1.39829       .     S
C448  C447   1.39829       .     S
C447  C452   1.51000       .     S
C452  C447   1.51000       .     S
C448  H449   0.93003       .     S
H449  C448   0.93003       .     S
C448  C450   1.39121       .     S
C450  C448   1.39121       .     S
C450  H451   0.93002       .     S
H451  C450   0.93002       .     S
O454  C458   1.21987       .     S
C458  O454   1.21987       .     S
O455  C458   1.29247   1_556     S
C458  O455   1.29247   1_554     S
O456  C490   1.21295       .     S
C490  O456   1.21295       .     S
O457  C490   1.29660       .     S
C490  O457   1.29660       .     S
C458  C459   1.50659       .     S
C459  C458   1.50659       .     S
C459  C460   1.38807       .     S
C460  C459   1.38807       .     S
C459  C467   1.38866   1_554     S
C467  C459   1.38866   1_556     S
C460  H461   0.92989       .     S
H461  C460   0.92989       .     S
C460  C462   1.38738       .     S
C462  C460   1.38738       .     S
C462  H463   0.93014       .     S
H463  C462   0.93014       .     S
C462  C464   1.39567   1_554     S
C464  C462   1.39567   1_556     S
C464  C465   1.39721       .     S
C465  C464   1.39721       .     S
C464  C474   1.49013       .     S
C474  C464   1.49013       .     S
C465  H466   0.92986       .     S
H466  C465   0.92986       .     S
C465  C467   1.39006       .     S
C467  C465   1.39006       .     S
C467  H468   0.93004       .     S
H468  C467   0.93004       .     S
C469  H470   0.92990       .     S
H470  C469   0.92990       .     S
C469  C471   1.34742       .     S
C471  C469   1.34742       .     S
C469  C515   1.43541       .     S
C515  C469   1.43541       .     S
C471  H472   0.92995       .     S
H472  C471   0.92995       .     S
C471  C473   1.42706   1_554     S
C473  C471   1.42706   1_556     S
C473  C474   1.41176       .     S
C474  C473   1.41176       .     S
C473  C479   1.43982       .     S
C479  C473   1.43982       .     S
C474  C475   1.38712       .     S
C475  C474   1.38712       .     S
C475  H476   0.92975       .     S
H476  C475   0.92975       .     S
C475  C477   1.39754       .     S
C477  C475   1.39754       .     S
C477  C478   1.40577       .     S
C478  C477   1.40577       .     S
C477  C480   1.48256       .     S
C480  C477   1.48256       .     S
C478  C479   1.41671       .     S
C479  C478   1.41671       .     S
C478  C506   1.43541       .     S
C506  C478   1.43541       .     S
C479  C516   1.43391   1_556     S
C516  C479   1.43391   1_554     S
C480  C481   1.39421       .     S
C481  C480   1.39421       .     S
C480  C488   1.38989       .     S
C488  C480   1.38989       .     S
C481  H482   0.93020       .     S
H482  C481   0.93020       .     S
C481  C483   1.38221       .     S
C483  C481   1.38221       .     S
C483  H484   0.93009       .     S
H484  C483   0.93009       .     S
C483  C485   1.37427       .     S
C485  C483   1.37427       .     S
C485  C486   1.41129       .     S
C486  C485   1.41129       .     S
C485  C490   1.47488       .     S
C490  C485   1.47488       .     S
C486  H487   0.92957       .     S
H487  C486   0.92957       .     S
C486  C488   1.38053       .     S
C488  C486   1.38053       .     S
C488  H489   0.93008       .     S
H489  C488   0.93008       .     S
O491  C495   1.21987       .     S
C495  O491   1.21987       .     S
O492  C495   1.29246   1_554     S
C495  O492   1.29246   1_556     S
O493  C527   1.21291       .     S
C527  O493   1.21291       .     S
O494  C527   1.29660       .     S
C527  O494   1.29660       .     S
C495  C496   1.50657       .     S
C496  C495   1.50657       .     S
C496  C497   1.38812       .     S
C497  C496   1.38812       .     S
C496  C504   1.38863   1_556     S
C504  C496   1.38863   1_554     S
C497  H498   0.92985       .     S
H498  C497   0.92985       .     S
C497  C499   1.38739       .     S
C499  C497   1.38739       .     S
C499  H500   0.93014       .     S
H500  C499   0.93014       .     S
C499  C501   1.39570   1_556     S
C501  C499   1.39570   1_554     S
C501  C502   1.39721       .     S
C502  C501   1.39721       .     S
C501  C511   1.49013       .     S
C511  C501   1.49013       .     S
C502  H503   0.92982       .     S
H503  C502   0.92982       .     S
C502  C504   1.39005       .     S
C504  C502   1.39005       .     S
C504  H505   0.93032   1_565     S
H505  C504   0.93032   1_545     S
C506  H507   0.92989       .     S
H507  C506   0.92989       .     S
C506  C508   1.34743       .     S
C508  C506   1.34743       .     S
C508  H509   0.92995       .     S
H509  C508   0.92995       .     S
C508  C510   1.42706   1_556     S
C510  C508   1.42706   1_554     S
C510  C511   1.41176       .     S
C511  C510   1.41176       .     S
C510  C516   1.43982       .     S
C516  C510   1.43982       .     S
C511  C512   1.38712       .     S
C512  C511   1.38712       .     S
C512  H513   0.92975       .     S
H513  C512   0.92975       .     S
C512  C514   1.39754       .     S
C514  C512   1.39754       .     S
C514  C515   1.40577       .     S
C515  C514   1.40577       .     S
C514  C517   1.48256       .     S
C517  C514   1.48256       .     S
C515  C516   1.41671       .     S
C516  C515   1.41671       .     S
C517  C518   1.39416       .     S
C518  C517   1.39416       .     S
C517  C525   1.38984       .     S
C525  C517   1.38984       .     S
C518  H519   0.93025       .     S
H519  C518   0.93025       .     S
C518  C520   1.38221       .     S
C520  C518   1.38221       .     S
C520  H521   0.93025       .     S
H521  C520   0.93025       .     S
C520  C522   1.37423       .     S
C522  C520   1.37423       .     S
C522  C523   1.41134       .     S
C523  C522   1.41134       .     S
C522  C527   1.47488       .     S
C527  C522   1.47488       .     S
C523  H524   0.92978       .     S
H524  C523   0.92978       .     S
C523  C525   1.38053       .     S
C525  C523   1.38053       .     S
C525  H526   0.93013       .     S
H526  C525   0.93013       .     S
O531  C535   1.21987       .     S
C535  O531   1.21987       .     S
O532  C535   1.29247   1_554     S
C535  O532   1.29247   1_556     S
O533  C567   1.21295       .     S
C567  O533   1.21295       .     S
O534  C567   1.29660       .     S
C567  O534   1.29660       .     S
C535  C536   1.50659       .     S
C536  C535   1.50659       .     S
C536  C537   1.38807       .     S
C537  C536   1.38807       .     S
C536  C544   1.38866   1_556     S
C544  C536   1.38866   1_554     S
C537  H538   0.92989       .     S
H538  C537   0.92989       .     S
C537  C539   1.38738       .     S
C539  C537   1.38738       .     S
C539  H540   0.93014       .     S
H540  C539   0.93014       .     S
C539  C541   1.39566   1_556     S
C541  C539   1.39566   1_554     S
C541  C542   1.39721       .     S
C542  C541   1.39721       .     S
C541  C551   1.49013       .     S
C551  C541   1.49013       .     S
C542  H543   0.92986       .     S
H543  C542   0.92986       .     S
C542  C544   1.39006       .     S
C544  C542   1.39006       .     S
C544  H545   0.93004       .     S
H545  C544   0.93004       .     S
C546  H547   0.92990       .     S
H547  C546   0.92990       .     S
C546  C548   1.34743       .     S
C548  C546   1.34743       .     S
C546  C592   1.43541       .     S
C592  C546   1.43541       .     S
C548  H549   0.92994       .     S
H549  C548   0.92994       .     S
C548  C550   1.42706   1_556     S
C550  C548   1.42706   1_554     S
C550  C551   1.41176       .     S
C551  C550   1.41176       .     S
C550  C556   1.43982       .     S
C556  C550   1.43982       .     S
C551  C552   1.38712       .     S
C552  C551   1.38712       .     S
C552  H553   0.92975       .     S
H553  C552   0.92975       .     S
C552  C554   1.39754       .     S
C554  C552   1.39754       .     S
C554  C555   1.40577       .     S
C555  C554   1.40577       .     S
C554  C557   1.48257       .     S
C557  C554   1.48257       .     S
C555  C556   1.41671       .     S
C556  C555   1.41671       .     S
C555  C583   1.43540       .     S
C583  C555   1.43540       .     S
C556  C593   1.43391   1_554     S
C593  C556   1.43391   1_556     S
C557  C558   1.39420       .     S
C558  C557   1.39420       .     S
C557  C565   1.38984       .     S
C565  C557   1.38984       .     S
C558  H559   0.93020       .     S
H559  C558   0.93020       .     S
C558  C560   1.38221       .     S
C560  C558   1.38221       .     S
C560  H561   0.93020       .     S
H561  C560   0.93020       .     S
C560  C562   1.37427       .     S
C562  C560   1.37427       .     S
C562  C563   1.41129       .     S
C563  C562   1.41129       .     S
C562  C567   1.47488       .     S
C567  C562   1.47488       .     S
C563  H564   0.92957       .     S
H564  C563   0.92957       .     S
C563  C565   1.38053       .     S
C565  C563   1.38053       .     S
C565  H566   0.93013       .     S
H566  C565   0.93013       .     S
O568  C572   1.21987       .     S
C572  O568   1.21987       .     S
O569  C572   1.29247   1_556     S
C572  O569   1.29247   1_554     S
O570  C604   1.21290       .     S
C604  O570   1.21290       .     S
O571  C604   1.29660       .     S
C604  O571   1.29660       .     S
C572  C573   1.50656       .     S
C573  C572   1.50656       .     S
C573  C574   1.38812       .     S
C574  C573   1.38812       .     S
C573  C581   1.38863   1_554     S
C581  C573   1.38863   1_556     S
C574  H575   0.92985       .     S
H575  C574   0.92985       .     S
C574  C576   1.38739       .     S
C576  C574   1.38739       .     S
C576  H577   0.93014       .     S
H577  C576   0.93014       .     S
C576  C578   1.39567   1_554     S
C578  C576   1.39567   1_556     S
C578  C579   1.39726       .     S
C579  C578   1.39726       .     S
C578  C588   1.49013       .     S
C588  C578   1.49013       .     S
C579  H580   0.92982       .     S
H580  C579   0.92982       .     S
C579  C581   1.39006       .     S
C581  C579   1.39006       .     S
C581  H582   0.93008   1_545     S
H582  C581   0.93008   1_565     S
C583  H584   0.92990       .     S
H584  C583   0.92990       .     S
C583  C585   1.34743       .     S
C585  C583   1.34743       .     S
C585  H586   0.92995       .     S
H586  C585   0.92995       .     S
C585  C587   1.42706   1_554     S
C587  C585   1.42707   1_556     S
C587  C588   1.41176       .     S
C588  C587   1.41176       .     S
C587  C593   1.43982       .     S
C593  C587   1.43982       .     S
C588  C589   1.38711       .     S
C589  C588   1.38711       .     S
C589  H590   0.92975       .     S
H590  C589   0.92975       .     S
C589  C591   1.39754       .     S
C591  C589   1.39754       .     S
C591  C592   1.40577       .     S
C592  C591   1.40577       .     S
C591  C594   1.48257       .     S
C594  C591   1.48257       .     S
C592  C593   1.41671       .     S
C593  C592   1.41671       .     S
C594  C595   1.39416       .     S
C595  C594   1.39416       .     S
C594  C602   1.38984       .     S
C602  C594   1.38984       .     S
C595  H596   0.93025       .     S
H596  C595   0.93025       .     S
C595  C597   1.38221       .     S
C597  C595   1.38221       .     S
C597  H598   0.93014       .     S
H598  C597   0.93014       .     S
C597  C599   1.37422       .     S
C599  C597   1.37422       .     S
C599  C600   1.41134       .     S
C600  C599   1.41134       .     S
C599  C604   1.47488       .     S
C604  C599   1.47488       .     S
C600  H601   0.92953       .     S
H601  C600   0.92953       .     S
C600  C602   1.38053       .     S
C602  C600   1.38053       .     S
C602  H603   0.93013       .     S
H603  C602   0.93013       .     S
O379  H74    1.28758       .     S
H74   O379   1.28758       .     S
O380  H74    2.40428       .     S
H74   O380   2.40428       .     S
O416  H75    1.28796       .     S
H75   O416   1.28796       .     S
O417  H75    2.40443       .     S
H75   O417   2.40443       .     S
O79   H76    1.22684       .     S
H76   O79    1.22684       .     S
O78   H76    2.50239       .     S
H76   O78    2.50239       .     S
O116  H77    1.22688   1_645     S
H77   O116   1.22688   1_465     S
O115  H77    2.50250   1_645     S
H77   O115   2.50250   1_465     S
O154  H152   1.28794       .     S
H152  O154   1.28794       .     S
O155  H152   2.40443       .     S
H152  O155   2.40443       .     S
O191  H153   1.28759       .     S
H153  O191   1.28759       .     S
O192  H153   2.40428       .     S
H153  O192   2.40428       .     S
O194  H228   1.25389   1_655     S
H228  O194   1.25389   1_455     S
O193  H228   2.43005   1_655     S
H228  O193   2.43005   1_455     S
O232  H303   1.25419       .     S
H303  O232   1.25419       .     S
O231  H303   2.43070       .     S
H303  O231   2.43070       .     S
O344  H378   1.25419   1_655     S
H378  O344   1.25419   1_455     S
O343  H378   2.43070   1_655     S
H378  O343   2.43070   1_455     S
O382  H453   1.25388       .     S
H453  O382   1.25388       .     S
O381  H453   2.43005       .     S
H453  O381   2.43005       .     S
O304  H528   1.28758       .     S
H528  O304   1.28758       .     S
O305  H528   2.40428       .     S
H528  O305   2.40428       .     S
O455  H529   1.22687   1_556     S
H529  O455   1.22687   1_554     S
O454  H529   2.50246       .     S
H529  O454   2.50246       .     S
O569  H530   1.22688   1_546     S
H530  O569   1.22688   1_564     S
O568  H530   2.50250   1_545     S
H530  O568   2.50250   1_565     S
O229  H605   1.28758       .     S
H605  O229   1.28758       .     S
O230  H605   2.40428       .     S
H605  O230   2.40428       .     S
O266  H606   1.28759       .     S
H606  O266   1.28759       .     S
O267  H606   2.40428       .     S
H606  O267   2.40428       .     S
O341  H607   1.28759       .     S
H607  O341   1.28759       .     S
O342  H607   2.40428       .     S
H607  O342   2.40428       .     S
C4    O0     1.21987       .     S
O0    C4     1.21987       .     S
C4    O1     1.29247       .     S
O1    C4     1.29247       .     S
C36   O2     1.21295       .     S
O2    C36    1.21295       .     S
C36   O3     1.29660       .     S
O3    C36    1.29660       .     S
C5    C4     1.50659       .     S
C4    C5     1.50659       .     S
C6    C5     1.38807       .     S
C5    C6     1.38807       .     S
C13   C5     1.38866       .     S
C5    C13    1.38866       .     S
H7    C6     0.92989       .     S
C6    H7     0.92989       .     S
C8    C6     1.38738       .     S
C6    C8     1.38738       .     S
H9    C8     0.93015       .     S
C8    H9     0.93015       .     S
C10   C8     1.39567       .     S
C8    C10    1.39567       .     S
C11   C10    1.39721       .     S
C10   C11    1.39721       .     S
C20   C10    1.49013       .     S
C10   C20    1.49013       .     S
H12   C11    0.92986       .     S
C11   H12    0.92986       .     S
C13   C11    1.39006       .     S
C11   C13    1.39006       .     S
H14   C13    0.93028       .     S
C13   H14    0.93028       .     S
H16   C15    0.92990       .     S
C15   H16    0.92990       .     S
C17   C15    1.34742       .     S
C15   C17    1.34742       .     S
C61   C15    1.43541       .     S
C15   C61    1.43541       .     S
H18   C17    0.92995       .     S
C17   H18    0.92995       .     S
C19   C17    1.42706       .     S
C17   C19    1.42706       .     S
C20   C19    1.41176       .     S
C19   C20    1.41176       .     S
C25   C19    1.43981       .     S
C19   C25    1.43981       .     S
C21   C20    1.38712       .     S
C20   C21    1.38712       .     S
H22   C21    0.92975       .     S
C21   H22    0.92975       .     S
C23   C21    1.39754       .     S
C21   C23    1.39754       .     S
C24   C23    1.40577       .     S
C23   C24    1.40577       .     S
C26   C23    1.48257       .     S
C23   C26    1.48257       .     S
C25   C24    1.41672       .     S
C24   C25    1.41672       .     S
C52   C24    1.43541       .     S
C24   C52    1.43541       .     S
C62   C25    1.43391       .     S
C25   C62    1.43391       .     S
C27   C26    1.39420       .     S
C26   C27    1.39420       .     S
C34   C26    1.38989       .     S
C26   C34    1.38989       .     S
H28   C27    0.93020       .     S
C27   H28    0.93020       .     S
C29   C27    1.38221       .     S
C27   C29    1.38221       .     S
H30   C29    0.93009       .     S
C29   H30    0.93009       .     S
C31   C29    1.37427       .     S
C29   C31    1.37427       .     S
C32   C31    1.41129       .     S
C31   C32    1.41129       .     S
C36   C31    1.47488       .     S
C31   C36    1.47488       .     S
H33   C32    0.92982       .     S
C32   H33    0.92982       .     S
C34   C32    1.38053       .     S
C32   C34    1.38053       .     S
H35   C34    0.93008       .     S
C34   H35    0.93008       .     S
C41   O37    1.21987       .     S
O37   C41    1.21987       .     S
C41   O38    1.29247       .     S
O38   C41    1.29247       .     S
C73   O39    1.21291       .     S
O39   C73    1.21291       .     S
C73   O40    1.29660       .     S
O40   C73    1.29660       .     S
C42   C41    1.50656       .     S
C41   C42    1.50656       .     S
C43   C42    1.38812       .     S
C42   C43    1.38812       .     S
C50   C42    1.38863       .     S
C42   C50    1.38863       .     S
H44   C43    0.92985       .     S
C43   H44    0.92985       .     S
C45   C43    1.38739       .     S
C43   C45    1.38739       .     S
H46   C45    0.93014       .     S
C45   H46    0.93014       .     S
C47   C45    1.39570       .     S
C45   C47    1.39570       .     S
C48   C47    1.39721       .     S
C47   C48    1.39721       .     S
C57   C47    1.49013       .     S
C47   C57    1.49013       .     S
H49   C48    0.92982       .     S
C48   H49    0.92982       .     S
C50   C48    1.39006       .     S
C48   C50    1.39006       .     S
H51   C50    0.93008   1_545     S
C50   H51    0.93008   1_565     S
H53   C52    0.92989       .     S
C52   H53    0.92989       .     S
C54   C52    1.34743       .     S
C52   C54    1.34743       .     S
H55   C54    0.92995       .     S
C54   H55    0.92995       .     S
C56   C54    1.42706       .     S
C54   C56    1.42706       .     S
C57   C56    1.41176       .     S
C56   C57    1.41176       .     S
C62   C56    1.43982       .     S
C56   C62    1.43982       .     S
C58   C57    1.38712       .     S
C57   C58    1.38712       .     S
H59   C58    0.92975       .     S
C58   H59    0.92975       .     S
C60   C58    1.39754       .     S
C58   C60    1.39754       .     S
C61   C60    1.40577       .     S
C60   C61    1.40577       .     S
C63   C60    1.48257       .     S
C60   C63    1.48257       .     S
C62   C61    1.41671       .     S
C61   C62    1.41671       .     S
C64   C63    1.39416       .     S
C63   C64    1.39416       .     S
C71   C63    1.38984       .     S
C63   C71    1.38984       .     S
H65   C64    0.93025       .     S
C64   H65    0.93025       .     S
C66   C64    1.38221       .     S
C64   C66    1.38221       .     S
H67   C66    0.93014       .     S
C66   H67    0.93014       .     S
C68   C66    1.37423       .     S
C66   C68    1.37423       .     S
C69   C68    1.41134       .     S
C68   C69    1.41134       .     S
C73   C68    1.47488       .     S
C68   C73    1.47488       .     S
H70   C69    0.92953       .     S
C69   H70    0.92953       .     S
C71   C69    1.38053       .     S
C69   C71    1.38053       .     S
H72   C71    0.93013       .     S
C71   H72    0.93013       .     S
C82   O78    1.21987       .     S
O78   C82    1.21987       .     S
C82   O79    1.29247       .     S
O79   C82    1.29247       .     S
C114  O80    1.21295       .     S
O80   C114   1.21295       .     S
C114  O81    1.29660       .     S
O81   C114   1.29660       .     S
C83   C82    1.50659       .     S
C82   C83    1.50659       .     S
C84   C83    1.38807       .     S
C83   C84    1.38807       .     S
C91   C83    1.38866       .     S
C83   C91    1.38866       .     S
H85   C84    0.92989       .     S
C84   H85    0.92989       .     S
C86   C84    1.38738       .     S
C84   C86    1.38738       .     S
H87   C86    0.93014       .     S
C86   H87    0.93014       .     S
C88   C86    1.39567       .     S
C86   C88    1.39567       .     S
C89   C88    1.39721       .     S
C88   C89    1.39721       .     S
C98   C88    1.49013       .     S
C88   C98    1.49013       .     S
H90   C89    0.92986       .     S
C89   H90    0.92986       .     S
C91   C89    1.39006       .     S
C89   C91    1.39006       .     S
H92   C91    0.93004       .     S
C91   H92    0.93004       .     S
H94   C93    0.92990       .     S
C93   H94    0.92990       .     S
C95   C93    1.34743       .     S
C93   C95    1.34743       .     S
C139  C93    1.43541       .     S
C93   C139   1.43541       .     S
H96   C95    0.92994       .     S
C95   H96    0.92994       .     S
C97   C95    1.42706       .     S
C95   C97    1.42706       .     S
C98   C97    1.41176       .     S
C97   C98    1.41176       .     S
C103  C97    1.43982       .     S
C97   C103   1.43982       .     S
C99   C98    1.38712       .     S
C98   C99    1.38712       .     S
H100  C99    0.92975       .     S
C99   H100   0.92975       .     S
C101  C99    1.39754       .     S
C99   C101   1.39754       .     S
C102  C101   1.40577       .     S
C101  C102   1.40577       .     S
C104  C101   1.48256       .     S
C101  C104   1.48256       .     S
C103  C102   1.41671       .     S
C102  C103   1.41671       .     S
C130  C102   1.43540       .     S
C102  C130   1.43540       .     S
C140  C103   1.43392       .     S
C103  C140   1.43392       .     S
C105  C104   1.39421       .     S
C104  C105   1.39421       .     S
C112  C104   1.38984       .     S
C104  C112   1.38984       .     S
H106  C105   0.93020       .     S
C105  H106   0.93020       .     S
C107  C105   1.38221       .     S
C105  C107   1.38221       .     S
H108  C107   0.93009       .     S
C107  H108   0.93009       .     S
C109  C107   1.37427       .     S
C107  C109   1.37427       .     S
C110  C109   1.41129       .     S
C109  C110   1.41129       .     S
C114  C109   1.47488       .     S
C109  C114   1.47488       .     S
H111  C110   0.92958       .     S
C110  H111   0.92958       .     S
C112  C110   1.38053       .     S
C110  C112   1.38053       .     S
H113  C112   0.93013       .     S
C112  H113   0.93013       .     S
C119  O115   1.21987       .     S
O115  C119   1.21987       .     S
C119  O116   1.29246       .     S
O116  C119   1.29246       .     S
C151  O117   1.21291       .     S
O117  C151   1.21291       .     S
C151  O118   1.29660       .     S
O118  C151   1.29660       .     S
C120  C119   1.50657       .     S
C119  C120   1.50657       .     S
C121  C120   1.38812       .     S
C120  C121   1.38812       .     S
C128  C120   1.38863       .     S
C120  C128   1.38863       .     S
H122  C121   0.92985       .     S
C121  H122   0.92985       .     S
C123  C121   1.38739       .     S
C121  C123   1.38739       .     S
H124  C123   0.93014       .     S
C123  H124   0.93014       .     S
C125  C123   1.39567       .     S
C123  C125   1.39567       .     S
C126  C125   1.39726       .     S
C125  C126   1.39726       .     S
C135  C125   1.49012       .     S
C125  C135   1.49012       .     S
H127  C126   0.92982       .     S
C126  H127   0.92982       .     S
C128  C126   1.39005       .     S
C126  C128   1.39005       .     S
H129  C128   0.93032   1_565     S
C128  H129   0.93033   1_545     S
H131  C130   0.92990       .     S
C130  H131   0.92990       .     S
C132  C130   1.34743       .     S
C130  C132   1.34743       .     S
H133  C132   0.92995       .     S
C132  H133   0.92995       .     S
C134  C132   1.42706       .     S
C132  C134   1.42706       .     S
C135  C134   1.41176       .     S
C134  C135   1.41176       .     S
C140  C134   1.43982       .     S
C134  C140   1.43982       .     S
C136  C135   1.38712       .     S
C135  C136   1.38712       .     S
H137  C136   0.92975       .     S
C136  H137   0.92975       .     S
C138  C136   1.39754       .     S
C136  C138   1.39754       .     S
C139  C138   1.40577       .     S
C138  C139   1.40577       .     S
C141  C138   1.48257       .     S
C138  C141   1.48257       .     S
C140  C139   1.41671       .     S
C139  C140   1.41671       .     S
C142  C141   1.39416       .     S
C141  C142   1.39416       .     S
C149  C141   1.38984       .     S
C141  C149   1.38984       .     S
H143  C142   0.93025       .     S
C142  H143   0.93025       .     S
C144  C142   1.38221       .     S
C142  C144   1.38221       .     S
H145  C144   0.93014       .     S
C144  H145   0.93014       .     S
C146  C144   1.37423       .     S
C144  C146   1.37423       .     S
C147  C146   1.41129       .     S
C146  C147   1.41129       .     S
C151  C146   1.47488       .     S
C146  C151   1.47488       .     S
H148  C147   0.92982       .     S
C147  H148   0.92982       .     S
C149  C147   1.38053       .     S
C147  C149   1.38053       .     S
H150  C149   0.93013       .     S
C149  H150   0.93013       .     S
C158  O154   1.29117       .     S
O154  C158   1.29117       .     S
C158  O155   1.18372       .     S
O155  C158   1.18372       .     S
C190  O156   1.22325       .     S
O156  C190   1.22325       .     S
C190  O157   1.26071       .     S
O157  C190   1.26071       .     S
C159  C158   1.51574       .     S
C158  C159   1.51574       .     S
C160  C159   1.37686       .     S
C159  C160   1.37686       .     S
C167  C159   1.39250       .     S
C159  C167   1.39250       .     S
H161  C160   0.92971       .     S
C160  H161   0.92971       .     S
C162  C160   1.38087       .     S
C160  C162   1.38087       .     S
H163  C162   0.92996       .     S
C162  H163   0.92996       .     S
C164  C162   1.39770       .     S
C162  C164   1.39770       .     S
C165  C164   1.39014       .     S
C164  C165   1.39014       .     S
C174  C164   1.48159       .     S
C164  C174   1.48159       .     S
H166  C165   0.93028       .     S
C165  H166   0.93028       .     S
C167  C165   1.39469       .     S
C165  C167   1.39469       .     S
H168  C167   0.92996       .     S
C167  H168   0.92996       .     S
H170  C169   0.92987       .     S
C169  H170   0.92987       .     S
C171  C169   1.35043       .     S
C169  C171   1.35043       .     S
C215  C169   1.42429       .     S
C169  C215   1.42429       .     S
H172  C171   0.92994       .     S
C171  H172   0.92994       .     S
C173  C171   1.43541       .     S
C171  C173   1.43541       .     S
C174  C173   1.41177       .     S
C173  C174   1.41177       .     S
C179  C173   1.42157   1_556     S
C173  C179   1.42157   1_554     S
C175  C174   1.39037   1_556     S
C174  C175   1.39037   1_554     S
H176  C175   0.93012       .     S
C175  H176   0.93012       .     S
C177  C175   1.38506       .     S
C175  C177   1.38506       .     S
C178  C177   1.42123       .     S
C177  C178   1.42123       .     S
C180  C177   1.48641       .     S
C177  C180   1.48641       .     S
C179  C178   1.42755       .     S
C178  C179   1.42755       .     S
C206  C178   1.42429       .     S
C178  C206   1.42429       .     S
C216  C179   1.43072   1_554     S
C179  C216   1.43072   1_556     S
C181  C180   1.40202       .     S
C180  C181   1.40202       .     S
C188  C180   1.39235       .     S
C180  C188   1.39235       .     S
H182  C181   0.93019       .     S
C181  H182   0.93019       .     S
C183  C181   1.38359       .     S
C181  C183   1.38359       .     S
H184  C183   0.92998       .     S
C183  H184   0.92998       .     S
C185  C183   1.36587       .     S
C183  C185   1.36587       .     S
C186  C185   1.39834       .     S
C185  C186   1.39834       .     S
C190  C185   1.51000       .     S
C185  C190   1.51000       .     S
H187  C186   0.93003       .     S
C186  H187   0.93003       .     S
C188  C186   1.39121       .     S
C186  C188   1.39121       .     S
H189  C188   0.93017       .     S
C188  H189   0.93017       .     S
C195  O191   1.29117       .     S
O191  C195   1.29117       .     S
C195  O192   1.18367       .     S
O192  C195   1.18367       .     S
C227  O193   1.22321       .     S
O193  C227   1.22321       .     S
C227  O194   1.26075       .     S
O194  C227   1.26075       .     S
C196  C195   1.51574       .     S
C195  C196   1.51574       .     S
C197  C196   1.37686       .     S
C196  C197   1.37686       .     S
C204  C196   1.39255       .     S
C196  C204   1.39255       .     S
H198  C197   0.92976       .     S
C197  H198   0.92976       .     S
C199  C197   1.38087       .     S
C197  C199   1.38087       .     S
H200  C199   0.93001       .     S
C199  H200   0.93001       .     S
C201  C199   1.39765       .     S
C199  C201   1.39765       .     S
C202  C201   1.39023       .     S
C201  C202   1.39023       .     S
C211  C201   1.48159       .     S
C201  C211   1.48159       .     S
H203  C202   0.93024       .     S
C202  H203   0.93024       .     S
C204  C202   1.39469       .     S
C202  C204   1.39469       .     S
H205  C204   0.92987       .     S
C204  H205   0.92987       .     S
H207  C206   0.92988       .     S
C206  H207   0.92988       .     S
C208  C206   1.35043       .     S
C206  C208   1.35043       .     S
H209  C208   0.92994       .     S
C208  H209   0.92994       .     S
C210  C208   1.43541       .     S
C208  C210   1.43541       .     S
C211  C210   1.41177       .     S
C210  C211   1.41177       .     S
C216  C210   1.42157   1_554     S
C210  C216   1.42157   1_556     S
C212  C211   1.39037   1_554     S
C211  C212   1.39037   1_556     S
H213  C212   0.93013       .     S
C212  H213   0.93013       .     S
C214  C212   1.38506       .     S
C212  C214   1.38506       .     S
C215  C214   1.42123       .     S
C214  C215   1.42123       .     S
C217  C214   1.48641       .     S
C214  C217   1.48641       .     S
C216  C215   1.42755       .     S
C215  C216   1.42755       .     S
C218  C217   1.40198       .     S
C217  C218   1.40198       .     S
C225  C217   1.39244       .     S
C217  C225   1.39244       .     S
H219  C218   0.93012       .     S
C218  H219   0.93012       .     S
C220  C218   1.38359       .     S
C218  C220   1.38359       .     S
H221  C220   0.93002       .     S
C220  H221   0.93002       .     S
C222  C220   1.36591       .     S
C220  C222   1.36591       .     S
C223  C222   1.39829       .     S
C222  C223   1.39829       .     S
C227  C222   1.51000       .     S
C222  C227   1.51000       .     S
H224  C223   0.93003       .     S
C223  H224   0.93003       .     S
C225  C223   1.39121       .     S
C223  C225   1.39121       .     S
H226  C225   0.93012       .     S
C225  H226   0.93012       .     S
C233  O229   1.29117       .     S
O229  C233   1.29117       .     S
C233  O230   1.18372       .     S
O230  C233   1.18372       .     S
C265  O231   1.22325       .     S
O231  C265   1.22325       .     S
C265  O232   1.26071       .     S
O232  C265   1.26071       .     S
C234  C233   1.51574       .     S
C233  C234   1.51574       .     S
C235  C234   1.37686       .     S
C234  C235   1.37686       .     S
C242  C234   1.39250       .     S
C234  C242   1.39250       .     S
H236  C235   0.92971       .     S
C235  H236   0.92971       .     S
C237  C235   1.38087       .     S
C235  C237   1.38087       .     S
H238  C237   0.92996       .     S
C237  H238   0.92996       .     S
C239  C237   1.39770       .     S
C237  C239   1.39770       .     S
C240  C239   1.39014       .     S
C239  C240   1.39014       .     S
C249  C239   1.48159       .     S
C239  C249   1.48159       .     S
H241  C240   0.93028       .     S
C240  H241   0.93028       .     S
C242  C240   1.39469       .     S
C240  C242   1.39469       .     S
H243  C242   0.92997       .     S
C242  H243   0.92997       .     S
H245  C244   0.92987       .     S
C244  H245   0.92987       .     S
C246  C244   1.35042       .     S
C244  C246   1.35042       .     S
C290  C244   1.42429       .     S
C244  C290   1.42429       .     S
H247  C246   0.92994       .     S
C246  H247   0.92994       .     S
C248  C246   1.43541       .     S
C246  C248   1.43541       .     S
C249  C248   1.41177       .     S
C248  C249   1.41177       .     S
C254  C248   1.42157       .     S
C248  C254   1.42157       .     S
C250  C249   1.39037       .     S
C249  C250   1.39037       .     S
H251  C250   0.93013       .     S
C250  H251   0.93013       .     S
C252  C250   1.38506       .     S
C250  C252   1.38506       .     S
C253  C252   1.42122       .     S
C252  C253   1.42122       .     S
C255  C252   1.48641       .     S
C252  C255   1.48641       .     S
C254  C253   1.42755       .     S
C253  C254   1.42755       .     S
C281  C253   1.42429       .     S
C253  C281   1.42429       .     S
C291  C254   1.43072       .     S
C254  C291   1.43072       .     S
C256  C255   1.40202       .     S
C255  C256   1.40202       .     S
C263  C255   1.39235       .     S
C255  C263   1.39235       .     S
H257  C256   0.93019       .     S
C256  H257   0.93019       .     S
C258  C256   1.38359       .     S
C256  C258   1.38359       .     S
H259  C258   0.92997       .     S
C258  H259   0.92997       .     S
C260  C258   1.36587       .     S
C258  C260   1.36587       .     S
C261  C260   1.39834       .     S
C260  C261   1.39834       .     S
C265  C260   1.51000       .     S
C260  C265   1.51000       .     S
H262  C261   0.93004       .     S
C261  H262   0.93004       .     S
C263  C261   1.39121       .     S
C261  C263   1.39121       .     S
H264  C263   0.93017       .     S
C263  H264   0.93017       .     S
C270  O266   1.29117       .     S
O266  C270   1.29117       .     S
C270  O267   1.18367       .     S
O267  C270   1.18367       .     S
C302  O268   1.22321       .     S
O268  C302   1.22321       .     S
C302  O269   1.26075       .     S
O269  C302   1.26075       .     S
C271  C270   1.51574       .     S
C270  C271   1.51574       .     S
C272  C271   1.37686       .     S
C271  C272   1.37686       .     S
C279  C271   1.39255       .     S
C271  C279   1.39255       .     S
H273  C272   0.92976       .     S
C272  H273   0.92976       .     S
C274  C272   1.38087       .     S
C272  C274   1.38087       .     S
H275  C274   0.93001       .     S
C274  H275   0.93001       .     S
C276  C274   1.39765       .     S
C274  C276   1.39765       .     S
C277  C276   1.39023       .     S
C276  C277   1.39023       .     S
C286  C276   1.48159       .     S
C276  C286   1.48159       .     S
H278  C277   0.93024       .     S
C277  H278   0.93024       .     S
C279  C277   1.39469       .     S
C277  C279   1.39469       .     S
H280  C279   0.92988       .     S
C279  H280   0.92988       .     S
H282  C281   0.92988       .     S
C281  H282   0.92988       .     S
C283  C281   1.35043       .     S
C281  C283   1.35043       .     S
H284  C283   0.92994       .     S
C283  H284   0.92994       .     S
C285  C283   1.43541       .     S
C283  C285   1.43541       .     S
C286  C285   1.41177       .     S
C285  C286   1.41177       .     S
C291  C285   1.42157       .     S
C285  C291   1.42157       .     S
C287  C286   1.39037       .     S
C286  C287   1.39037       .     S
H288  C287   0.93013       .     S
C287  H288   0.93013       .     S
C289  C287   1.38506       .     S
C287  C289   1.38506       .     S
C290  C289   1.42123       .     S
C289  C290   1.42123       .     S
C292  C289   1.48641       .     S
C289  C292   1.48641       .     S
C291  C290   1.42755       .     S
C290  C291   1.42755       .     S
C293  C292   1.40198       .     S
C292  C293   1.40198       .     S
C300  C292   1.39244       .     S
C292  C300   1.39244       .     S
H294  C293   0.93012       .     S
C293  H294   0.93012       .     S
C295  C293   1.38359       .     S
C293  C295   1.38359       .     S
H296  C295   0.93002       .     S
C295  H296   0.93002       .     S
C297  C295   1.36591       .     S
C295  C297   1.36591       .     S
C298  C297   1.39829       .     S
C297  C298   1.39829       .     S
C302  C297   1.51000       .     S
C297  C302   1.51000       .     S
H299  C298   0.93003       .     S
C298  H299   0.93003       .     S
C300  C298   1.39121       .     S
C298  C300   1.39121       .     S
H301  C300   0.93002       .     S
C300  H301   0.93002       .     S
C308  O304   1.29121       .     S
O304  C308   1.29121       .     S
C308  O305   1.18367       .     S
O305  C308   1.18367       .     S
C340  O306   1.22325       .     S
O306  C340   1.22325       .     S
C340  O307   1.26071       .     S
O307  C340   1.26071       .     S
C309  C308   1.51574       .     S
C308  C309   1.51574       .     S
C310  C309   1.37686       .     S
C309  C310   1.37686       .     S
C317  C309   1.39250       .     S
C309  C317   1.39250       .     S
H311  C310   0.92971       .     S
C310  H311   0.92971       .     S
C312  C310   1.38087       .     S
C310  C312   1.38087       .     S
H313  C312   0.92996       .     S
C312  H313   0.92996       .     S
C314  C312   1.39765       .     S
C312  C314   1.39765       .     S
C315  C314   1.39019       .     S
C314  C315   1.39019       .     S
C324  C314   1.48159       .     S
C314  C324   1.48159       .     S
H316  C315   0.93029       .     S
C315  H316   0.93029       .     S
C317  C315   1.39469       .     S
C315  C317   1.39469       .     S
H318  C317   0.92996       .     S
C317  H318   0.92996       .     S
H320  C319   0.92988       .     S
C319  H320   0.92988       .     S
C321  C319   1.35042       .     S
C319  C321   1.35042       .     S
C365  C319   1.42429       .     S
C319  C365   1.42429       .     S
H322  C321   0.92994       .     S
C321  H322   0.92994       .     S
C323  C321   1.43541       .     S
C321  C323   1.43541       .     S
C324  C323   1.41177       .     S
C323  C324   1.41177       .     S
C329  C323   1.42157       .     S
C323  C329   1.42157       .     S
C325  C324   1.39037       .     S
C324  C325   1.39037       .     S
H326  C325   0.93012       .     S
C325  H326   0.93012       .     S
C327  C325   1.38506       .     S
C325  C327   1.38506       .     S
C328  C327   1.42123       .     S
C327  C328   1.42123       .     S
C330  C327   1.48641       .     S
C327  C330   1.48641       .     S
C329  C328   1.42755       .     S
C328  C329   1.42755       .     S
C356  C328   1.42429       .     S
C328  C356   1.42429       .     S
C366  C329   1.43072       .     S
C329  C366   1.43072       .     S
C331  C330   1.40198       .     S
C330  C331   1.40198       .     S
C338  C330   1.39240       .     S
C330  C338   1.39240       .     S
H332  C331   0.93019       .     S
C331  H332   0.93019       .     S
C333  C331   1.38359       .     S
C331  C333   1.38359       .     S
H334  C333   0.92998       .     S
C333  H334   0.92998       .     S
C335  C333   1.36587       .     S
C333  C335   1.36587       .     S
C336  C335   1.39829       .     S
C335  C336   1.39829       .     S
C340  C335   1.51000       .     S
C335  C340   1.51000       .     S
H337  C336   0.93008       .     S
C336  H337   0.93008       .     S
C338  C336   1.39121       .     S
C336  C338   1.39121       .     S
H339  C338   0.93017       .     S
C338  H339   0.93017       .     S
C345  O341   1.29117       .     S
O341  C345   1.29117       .     S
C345  O342   1.18367       .     S
O342  C345   1.18367       .     S
C377  O343   1.22321       .     S
O343  C377   1.22321       .     S
C377  O344   1.26074       .     S
O344  C377   1.26074       .     S
C346  C345   1.51574       .     S
C345  C346   1.51574       .     S
C347  C346   1.37686       .     S
C346  C347   1.37686       .     S
C354  C346   1.39255       .     S
C346  C354   1.39255       .     S
H348  C347   0.92976       .     S
C347  H348   0.92976       .     S
C349  C347   1.38087       .     S
C347  C349   1.38087       .     S
H350  C349   0.93001       .     S
C349  H350   0.93001       .     S
C351  C349   1.39765       .     S
C349  C351   1.39765       .     S
C352  C351   1.39023       .     S
C351  C352   1.39023       .     S
C361  C351   1.48160       .     S
C351  C361   1.48160       .     S
H353  C352   0.93024       .     S
C352  H353   0.93024       .     S
C354  C352   1.39469       .     S
C352  C354   1.39469       .     S
H355  C354   0.92987       .     S
C354  H355   0.92987       .     S
H357  C356   0.92988       .     S
C356  H357   0.92988       .     S
C358  C356   1.35043       .     S
C356  C358   1.35043       .     S
H359  C358   0.92994       .     S
C358  H359   0.92994       .     S
C360  C358   1.43541       .     S
C358  C360   1.43541       .     S
C361  C360   1.41177       .     S
C360  C361   1.41177       .     S
C366  C360   1.42157       .     S
C360  C366   1.42157       .     S
C362  C361   1.39037       .     S
C361  C362   1.39037       .     S
H363  C362   0.93013       .     S
C362  H363   0.93013       .     S
C364  C362   1.38506       .     S
C362  C364   1.38506       .     S
C365  C364   1.42123       .     S
C364  C365   1.42123       .     S
C367  C364   1.48641       .     S
C364  C367   1.48641       .     S
C366  C365   1.42755       .     S
C365  C366   1.42755       .     S
C368  C367   1.40198       .     S
C367  C368   1.40198       .     S
C375  C367   1.39244       .     S
C367  C375   1.39244       .     S
H369  C368   0.93012       .     S
C368  H369   0.93012       .     S
C370  C368   1.38359       .     S
C368  C370   1.38359       .     S
H371  C370   0.93002       .     S
C370  H371   0.93002       .     S
C372  C370   1.36591       .     S
C370  C372   1.36591       .     S
C373  C372   1.39829       .     S
C372  C373   1.39829       .     S
C377  C372   1.51001       .     S
C372  C377   1.51001       .     S
H374  C373   0.93004       .     S
C373  H374   0.93004       .     S
C375  C373   1.39121       .     S
C373  C375   1.39121       .     S
H376  C375   0.93012       .     S
C375  H376   0.93012       .     S
C383  O379   1.29121       .     S
O379  C383   1.29121       .     S
C383  O380   1.18367       .     S
O380  C383   1.18367       .     S
C415  O381   1.22325       .     S
O381  C415   1.22325       .     S
C415  O382   1.26071       .     S
O382  C415   1.26071       .     S
C384  C383   1.51574       .     S
C383  C384   1.51574       .     S
C385  C384   1.37686       .     S
C384  C385   1.37686       .     S
C392  C384   1.39250       .     S
C384  C392   1.39250       .     S
H386  C385   0.92971       .     S
C385  H386   0.92971       .     S
C387  C385   1.38087       .     S
C385  C387   1.38087       .     S
H388  C387   0.92996       .     S
C387  H388   0.92996       .     S
C389  C387   1.39765       .     S
C387  C389   1.39765       .     S
C390  C389   1.39019       .     S
C389  C390   1.39019       .     S
C399  C389   1.48160       .     S
C389  C399   1.48160       .     S
H391  C390   0.93029       .     S
C390  H391   0.93029       .     S
C392  C390   1.39469       .     S
C390  C392   1.39469       .     S
H393  C392   0.92997       .     S
C392  H393   0.92997       .     S
H395  C394   0.92988       .     S
C394  H395   0.92988       .     S
C396  C394   1.35042       .     S
C394  C396   1.35042       .     S
C440  C394   1.42429       .     S
C394  C440   1.42429       .     S
H397  C396   0.92994       .     S
C396  H397   0.92994       .     S
C398  C396   1.43541       .     S
C396  C398   1.43541       .     S
C399  C398   1.41177       .     S
C398  C399   1.41177       .     S
C404  C398   1.42157   1_554     S
C398  C404   1.42157   1_556     S
C400  C399   1.39037   1_554     S
C399  C400   1.39037   1_556     S
H401  C400   0.93013       .     S
C400  H401   0.93013       .     S
C402  C400   1.38507       .     S
C400  C402   1.38507       .     S
C403  C402   1.42123       .     S
C402  C403   1.42123       .     S
C405  C402   1.48641       .     S
C402  C405   1.48641       .     S
C404  C403   1.42755       .     S
C403  C404   1.42755       .     S
C431  C403   1.42429       .     S
C403  C431   1.42429       .     S
C441  C404   1.43072   1_556     S
C404  C441   1.43072   1_554     S
C406  C405   1.40198       .     S
C405  C406   1.40198       .     S
C413  C405   1.39240       .     S
C405  C413   1.39240       .     S
H407  C406   0.93019       .     S
C406  H407   0.93019       .     S
C408  C406   1.38359       .     S
C406  C408   1.38359       .     S
H409  C408   0.92998       .     S
C408  H409   0.92998       .     S
C410  C408   1.36587       .     S
C408  C410   1.36587       .     S
C411  C410   1.39834       .     S
C410  C411   1.39834       .     S
C415  C410   1.51000       .     S
C410  C415   1.51000       .     S
H412  C411   0.93008       .     S
C411  H412   0.93008       .     S
C413  C411   1.39121       .     S
C411  C413   1.39121       .     S
H414  C413   0.93017       .     S
C413  H414   0.93017       .     S
C420  O416   1.29117       .     S
O416  C420   1.29117       .     S
C420  O417   1.18367       .     S
O417  C420   1.18367       .     S
C452  O418   1.22321       .     S
O418  C452   1.22321       .     S
C452  O419   1.26074       .     S
O419  C452   1.26074       .     S
C421  C420   1.51574       .     S
C420  C421   1.51574       .     S
C422  C421   1.37686       .     S
C421  C422   1.37686       .     S
C429  C421   1.39255       .     S
C421  C429   1.39255       .     S
H423  C422   0.92976       .     S
C422  H423   0.92976       .     S
C424  C422   1.38087       .     S
C422  C424   1.38087       .     S
H425  C424   0.93001       .     S
C424  H425   0.93001       .     S
C426  C424   1.39765       .     S
C424  C426   1.39765       .     S
C427  C426   1.39023       .     S
C426  C427   1.39023       .     S
C436  C426   1.48160       .     S
C426  C436   1.48160       .     S
H428  C427   0.93024       .     S
C427  H428   0.93024       .     S
C429  C427   1.39469       .     S
C427  C429   1.39469       .     S
H430  C429   0.92987       .     S
C429  H430   0.92987       .     S
H432  C431   0.92988       .     S
C431  H432   0.92988       .     S
C433  C431   1.35043       .     S
C431  C433   1.35043       .     S
H434  C433   0.92994       .     S
C433  H434   0.92994       .     S
C435  C433   1.43541       .     S
C433  C435   1.43541       .     S
C436  C435   1.41177       .     S
C435  C436   1.41177       .     S
C441  C435   1.42157   1_556     S
C435  C441   1.42157   1_554     S
C437  C436   1.39037   1_556     S
C436  C437   1.39037   1_554     S
H438  C437   0.93014       .     S
C437  H438   0.93014       .     S
C439  C437   1.38506       .     S
C437  C439   1.38506       .     S
C440  C439   1.42123       .     S
C439  C440   1.42123       .     S
C442  C439   1.48641       .     S
C439  C442   1.48641       .     S
C441  C440   1.42755       .     S
C440  C441   1.42755       .     S
C443  C442   1.40198       .     S
C442  C443   1.40198       .     S
C450  C442   1.39244       .     S
C442  C450   1.39244       .     S
H444  C443   0.93012       .     S
C443  H444   0.93012       .     S
C445  C443   1.38359       .     S
C443  C445   1.38359       .     S
H446  C445   0.93002       .     S
C445  H446   0.93002       .     S
C447  C445   1.36591       .     S
C445  C447   1.36591       .     S
C448  C447   1.39829       .     S
C447  C448   1.39829       .     S
C452  C447   1.51000       .     S
C447  C452   1.51000       .     S
H449  C448   0.93003       .     S
C448  H449   0.93003       .     S
C450  C448   1.39121       .     S
C448  C450   1.39121       .     S
H451  C450   0.93002       .     S
C450  H451   0.93002       .     S
C458  O454   1.21987       .     S
O454  C458   1.21987       .     S
C458  O455   1.29247   1_554     S
O455  C458   1.29247   1_556     S
C490  O456   1.21295       .     S
O456  C490   1.21295       .     S
C490  O457   1.29660       .     S
O457  C490   1.29660       .     S
C459  C458   1.50659       .     S
C458  C459   1.50659       .     S
C460  C459   1.38807       .     S
C459  C460   1.38807       .     S
C467  C459   1.38866   1_556     S
C459  C467   1.38866   1_554     S
H461  C460   0.92989       .     S
C460  H461   0.92989       .     S
C462  C460   1.38738       .     S
C460  C462   1.38738       .     S
H463  C462   0.93014       .     S
C462  H463   0.93014       .     S
C464  C462   1.39567   1_556     S
C462  C464   1.39567   1_554     S
C465  C464   1.39721       .     S
C464  C465   1.39721       .     S
C474  C464   1.49013       .     S
C464  C474   1.49013       .     S
H466  C465   0.92986       .     S
C465  H466   0.92986       .     S
C467  C465   1.39006       .     S
C465  C467   1.39006       .     S
H468  C467   0.93004       .     S
C467  H468   0.93004       .     S
H470  C469   0.92990       .     S
C469  H470   0.92990       .     S
C471  C469   1.34742       .     S
C469  C471   1.34742       .     S
C515  C469   1.43541       .     S
C469  C515   1.43541       .     S
H472  C471   0.92995       .     S
C471  H472   0.92995       .     S
C473  C471   1.42706   1_556     S
C471  C473   1.42706   1_554     S
C474  C473   1.41176       .     S
C473  C474   1.41176       .     S
C479  C473   1.43982       .     S
C473  C479   1.43982       .     S
C475  C474   1.38712       .     S
C474  C475   1.38712       .     S
H476  C475   0.92975       .     S
C475  H476   0.92975       .     S
C477  C475   1.39754       .     S
C475  C477   1.39754       .     S
C478  C477   1.40577       .     S
C477  C478   1.40577       .     S
C480  C477   1.48256       .     S
C477  C480   1.48256       .     S
C479  C478   1.41671       .     S
C478  C479   1.41671       .     S
C506  C478   1.43541       .     S
C478  C506   1.43541       .     S
C516  C479   1.43391   1_554     S
C479  C516   1.43391   1_556     S
C481  C480   1.39421       .     S
C480  C481   1.39421       .     S
C488  C480   1.38989       .     S
C480  C488   1.38989       .     S
H482  C481   0.93020       .     S
C481  H482   0.93020       .     S
C483  C481   1.38221       .     S
C481  C483   1.38221       .     S
H484  C483   0.93009       .     S
C483  H484   0.93009       .     S
C485  C483   1.37427       .     S
C483  C485   1.37427       .     S
C486  C485   1.41129       .     S
C485  C486   1.41129       .     S
C490  C485   1.47488       .     S
C485  C490   1.47488       .     S
H487  C486   0.92957       .     S
C486  H487   0.92957       .     S
C488  C486   1.38053       .     S
C486  C488   1.38053       .     S
H489  C488   0.93008       .     S
C488  H489   0.93008       .     S
C495  O491   1.21987       .     S
O491  C495   1.21987       .     S
C495  O492   1.29246   1_556     S
O492  C495   1.29246   1_554     S
C527  O493   1.21291       .     S
O493  C527   1.21291       .     S
C527  O494   1.29660       .     S
O494  C527   1.29660       .     S
C496  C495   1.50657       .     S
C495  C496   1.50657       .     S
C497  C496   1.38812       .     S
C496  C497   1.38812       .     S
C504  C496   1.38863   1_554     S
C496  C504   1.38863   1_556     S
H498  C497   0.92985       .     S
C497  H498   0.92985       .     S
C499  C497   1.38739       .     S
C497  C499   1.38739       .     S
H500  C499   0.93014       .     S
C499  H500   0.93014       .     S
C501  C499   1.39570   1_554     S
C499  C501   1.39570   1_556     S
C502  C501   1.39721       .     S
C501  C502   1.39721       .     S
C511  C501   1.49013       .     S
C501  C511   1.49013       .     S
H503  C502   0.92982       .     S
C502  H503   0.92982       .     S
C504  C502   1.39005       .     S
C502  C504   1.39005       .     S
H505  C504   0.93032   1_545     S
C504  H505   0.93032   1_565     S
H507  C506   0.92989       .     S
C506  H507   0.92989       .     S
C508  C506   1.34743       .     S
C506  C508   1.34743       .     S
H509  C508   0.92995       .     S
C508  H509   0.92995       .     S
C510  C508   1.42706   1_554     S
C508  C510   1.42706   1_556     S
C511  C510   1.41176       .     S
C510  C511   1.41176       .     S
C516  C510   1.43982       .     S
C510  C516   1.43982       .     S
C512  C511   1.38712       .     S
C511  C512   1.38712       .     S
H513  C512   0.92975       .     S
C512  H513   0.92975       .     S
C514  C512   1.39754       .     S
C512  C514   1.39754       .     S
C515  C514   1.40577       .     S
C514  C515   1.40577       .     S
C517  C514   1.48256       .     S
C514  C517   1.48256       .     S
C516  C515   1.41671       .     S
C515  C516   1.41671       .     S
C518  C517   1.39416       .     S
C517  C518   1.39416       .     S
C525  C517   1.38984       .     S
C517  C525   1.38984       .     S
H519  C518   0.93025       .     S
C518  H519   0.93025       .     S
C520  C518   1.38221       .     S
C518  C520   1.38221       .     S
H521  C520   0.93025       .     S
C520  H521   0.93025       .     S
C522  C520   1.37423       .     S
C520  C522   1.37423       .     S
C523  C522   1.41134       .     S
C522  C523   1.41134       .     S
C527  C522   1.47488       .     S
C522  C527   1.47488       .     S
H524  C523   0.92978       .     S
C523  H524   0.92978       .     S
C525  C523   1.38053       .     S
C523  C525   1.38053       .     S
H526  C525   0.93013       .     S
C525  H526   0.93013       .     S
C535  O531   1.21987       .     S
O531  C535   1.21987       .     S
C535  O532   1.29247   1_556     S
O532  C535   1.29247   1_554     S
C567  O533   1.21295       .     S
O533  C567   1.21295       .     S
C567  O534   1.29660       .     S
O534  C567   1.29660       .     S
C536  C535   1.50659       .     S
C535  C536   1.50659       .     S
C537  C536   1.38807       .     S
C536  C537   1.38807       .     S
C544  C536   1.38866   1_554     S
C536  C544   1.38866   1_556     S
H538  C537   0.92989       .     S
C537  H538   0.92989       .     S
C539  C537   1.38738       .     S
C537  C539   1.38738       .     S
H540  C539   0.93014       .     S
C539  H540   0.93014       .     S
C541  C539   1.39566   1_554     S
C539  C541   1.39566   1_556     S
C542  C541   1.39721       .     S
C541  C542   1.39721       .     S
C551  C541   1.49013       .     S
C541  C551   1.49013       .     S
H543  C542   0.92986       .     S
C542  H543   0.92986       .     S
C544  C542   1.39006       .     S
C542  C544   1.39006       .     S
H545  C544   0.93004       .     S
C544  H545   0.93004       .     S
H547  C546   0.92990       .     S
C546  H547   0.92990       .     S
C548  C546   1.34743       .     S
C546  C548   1.34743       .     S
C592  C546   1.43541       .     S
C546  C592   1.43541       .     S
H549  C548   0.92994       .     S
C548  H549   0.92994       .     S
C550  C548   1.42706   1_554     S
C548  C550   1.42706   1_556     S
C551  C550   1.41176       .     S
C550  C551   1.41176       .     S
C556  C550   1.43982       .     S
C550  C556   1.43982       .     S
C552  C551   1.38712       .     S
C551  C552   1.38712       .     S
H553  C552   0.92975       .     S
C552  H553   0.92975       .     S
C554  C552   1.39754       .     S
C552  C554   1.39754       .     S
C555  C554   1.40577       .     S
C554  C555   1.40577       .     S
C557  C554   1.48257       .     S
C554  C557   1.48257       .     S
C556  C555   1.41671       .     S
C555  C556   1.41671       .     S
C583  C555   1.43540       .     S
C555  C583   1.43540       .     S
C593  C556   1.43391   1_556     S
C556  C593   1.43391   1_554     S
C558  C557   1.39420       .     S
C557  C558   1.39420       .     S
C565  C557   1.38984       .     S
C557  C565   1.38984       .     S
H559  C558   0.93020       .     S
C558  H559   0.93020       .     S
C560  C558   1.38221       .     S
C558  C560   1.38221       .     S
H561  C560   0.93020       .     S
C560  H561   0.93020       .     S
C562  C560   1.37427       .     S
C560  C562   1.37427       .     S
C563  C562   1.41129       .     S
C562  C563   1.41129       .     S
C567  C562   1.47488       .     S
C562  C567   1.47488       .     S
H564  C563   0.92957       .     S
C563  H564   0.92957       .     S
C565  C563   1.38053       .     S
C563  C565   1.38053       .     S
H566  C565   0.93013       .     S
C565  H566   0.93013       .     S
C572  O568   1.21987       .     S
O568  C572   1.21987       .     S
C572  O569   1.29247   1_554     S
O569  C572   1.29247   1_556     S
C604  O570   1.21290       .     S
O570  C604   1.21290       .     S
C604  O571   1.29660       .     S
O571  C604   1.29660       .     S
C573  C572   1.50656       .     S
C572  C573   1.50656       .     S
C574  C573   1.38812       .     S
C573  C574   1.38812       .     S
C581  C573   1.38863   1_556     S
C573  C581   1.38863   1_554     S
H575  C574   0.92985       .     S
C574  H575   0.92985       .     S
C576  C574   1.38739       .     S
C574  C576   1.38739       .     S
H577  C576   0.93014       .     S
C576  H577   0.93014       .     S
C578  C576   1.39567   1_556     S
C576  C578   1.39567   1_554     S
C579  C578   1.39726       .     S
C578  C579   1.39726       .     S
C588  C578   1.49013       .     S
C578  C588   1.49013       .     S
H580  C579   0.92982       .     S
C579  H580   0.92982       .     S
C581  C579   1.39006       .     S
C579  C581   1.39006       .     S
H582  C581   0.93008   1_565     S
C581  H582   0.93008   1_545     S
H584  C583   0.92990       .     S
C583  H584   0.92990       .     S
C585  C583   1.34743       .     S
C583  C585   1.34743       .     S
H586  C585   0.92995       .     S
C585  H586   0.92995       .     S
C587  C585   1.42707   1_556     S
C585  C587   1.42706   1_554     S
C588  C587   1.41176       .     S
C587  C588   1.41176       .     S
C593  C587   1.43982       .     S
C587  C593   1.43982       .     S
C589  C588   1.38711       .     S
C588  C589   1.38711       .     S
H590  C589   0.92975       .     S
C589  H590   0.92975       .     S
C591  C589   1.39754       .     S
C589  C591   1.39754       .     S
C592  C591   1.40577       .     S
C591  C592   1.40577       .     S
C594  C591   1.48257       .     S
C591  C594   1.48257       .     S
C593  C592   1.41671       .     S
C592  C593   1.41671       .     S
C595  C594   1.39416       .     S
C594  C595   1.39416       .     S
C602  C594   1.38984       .     S
C594  C602   1.38984       .     S
H596  C595   0.93025       .     S
C595  H596   0.93025       .     S
C597  C595   1.38221       .     S
C595  C597   1.38221       .     S
H598  C597   0.93014       .     S
C597  H598   0.93014       .     S
C599  C597   1.37422       .     S
C597  C599   1.37422       .     S
C600  C599   1.41134       .     S
C599  C600   1.41134       .     S
C604  C599   1.47488       .     S
C599  C604   1.47488       .     S
H601  C600   0.92953       .     S
C600  H601   0.92953       .     S
C602  C600   1.38053       .     S
C600  C602   1.38053       .     S
H603  C602   0.93013       .     S
C602  H603   0.93013       .     S
