data_I
_chemical_name_common  '/data/user2/wty/HOF/MOFDiff/mofdiff/data/test/196-2'
_cell_length_a 19.58670
_cell_length_b 19.58670
_cell_length_c 14.48550
_cell_angle_alpha 90.00000
_cell_angle_beta  90.00000
_cell_angle_gamma 120.00000
_space_group_name_H-M_alt      'P 1'


loop_
_space_group_symop_operation_xyz
  'x, y, z' 

loop_
_atom_site_label
_atom_site_fract_x
_atom_site_fract_y
_atom_site_fract_z
_atom_site_type_symbol
Ni0    0.58745  0.58745     0.25    Ni
O1     0.34944  0.88069  0.28477     O
O2     0.23329  0.78883  0.34106     O
O3      0.1124  0.78493  0.39829     O
H4       0.154   0.7873    0.384     H
O5     0.07475  0.86996   0.4385     O
N6     0.32983  0.99983  0.34714     N
N7     0.22443  0.99724  0.40252     N
H8      0.1939   0.0134   0.4237     H
N9     0.44465  0.37608   0.3842     N
N10    0.52187  0.49986  0.34441     N
C11    0.12423  0.85516    0.411     C
C12    0.20474   0.9207  0.39045     C
C13    0.27074  0.92267  0.35581     C
C14    0.28564  0.85982  0.32534     C
C15        0.3  0.04354  0.37562     C
C16    0.33898  0.12977  0.37721     C
C17    0.29477   0.1661   0.3633     C
H18      0.241   0.1356    0.352     H
C19    0.32974  0.24715   0.3662     C
H20     0.2999   0.2713   0.3563     H
C21    0.40967  0.29207   0.3837     C
C22    0.45501  0.25708   0.3976     C
H23     0.5088   0.2877   0.4093     H
C24    0.41938  0.17578    0.394     C
H25     0.4495   0.1517   0.4029     H
C26    0.41024  0.41785   0.4173     C
H27     0.3631   0.3978   0.4497     H
C28    0.45853  0.49341    0.393     C
H29     0.4503   0.5351    0.407     H
C30    0.51155  0.42841   0.3408     C
H31      0.546   0.4155    0.312     H
O32    0.53125  0.65056  0.28477     O
O33    0.55554  0.76671  0.34106     O
O34    0.67253   0.8876  0.39829     O
H35     0.6333    0.846    0.384     H
O36    0.79521  0.92525   0.4385     O
N37       0.67  0.67017  0.34714     N
N38    0.77281  0.77557  0.40252     N
H39     0.8195   0.8061   0.4237     H
N40    0.93143  0.55535   0.3842     N
N41    0.97799  0.47813  0.34441     N
C42    0.73093  0.87577    0.411     C
C43    0.71596  0.79526  0.39045     C
C44    0.65193  0.72926  0.35581     C
C45    0.57418  0.71436  0.32534     C
C46    0.74354      0.7  0.37562     C
C47    0.79079  0.66102  0.37721     C
C48    0.87133  0.70523   0.3633     C
H49     0.8946    0.759    0.352     H
C50    0.91741  0.67026   0.3662     C
H51     0.9714   0.7001   0.3563     H
C52     0.8824  0.59033   0.3837     C
C53    0.80207  0.54499   0.3976     C
H54     0.7789   0.4912   0.4093     H
C55     0.7564  0.58062    0.394     C
H56     0.7022   0.5505   0.4029     H
C57    0.00761  0.58976   0.4173     C
H58     0.0347   0.6369   0.4497     H
C59    0.03488  0.54147    0.393     C
H60     0.0848   0.5497    0.407     H
C61    0.91686  0.48845   0.3408     C
H62     0.8695    0.454    0.312     H
Ni63   0.41255      0.0     0.25    Ni
Ni64       0.0  0.41255     0.25    Ni
O65    0.65056  0.53125  0.21523     O
N66    0.67017     0.67  0.15286     N
N67    0.49986  0.52187  0.15559     N
O68    0.11931  0.46875  0.28477     O
O69    0.21117  0.44446  0.34106     O
O70    0.21507  0.32747  0.39829     O
H71     0.2127   0.3667    0.384     H
O72    0.13004  0.20479   0.4385     O
N73    0.00017     0.33  0.34714     N
N74    0.00276  0.22719  0.40252     N
H75     0.9866   0.1805   0.4237     H
N76    0.62392  0.06857   0.3842     N
N77    0.50014  0.02201  0.34441     N
C78    0.14484  0.26907    0.411     C
C79     0.0793  0.28404  0.39045     C
C80    0.07733  0.34807  0.35581     C
C81    0.14018  0.42582  0.32534     C
C82    0.95646  0.25646  0.37562     C
C83    0.87023  0.20921  0.37721     C
C84     0.8339  0.12867   0.3633     C
H85     0.8644   0.1054    0.352     H
C86    0.75285  0.08259   0.3662     C
H87     0.7287   0.0286   0.3563     H
C88    0.70793   0.1176   0.3837     C
C89    0.74292  0.19793   0.3976     C
H90     0.7123   0.2211   0.4093     H
C91    0.82422   0.2436    0.394     C
H92     0.8483   0.2978   0.4029     H
C93    0.58215  0.99239   0.4173     C
H94     0.6022   0.9653   0.4497     H
C95    0.50659  0.96512    0.393     C
H96     0.4649   0.9152    0.407     H
C97    0.57159  0.08314   0.3408     C
H98     0.5845   0.1305    0.312     H
O99    0.46875  0.11931  0.21523     O
N100      0.33  0.00017  0.15286     N
N101   0.47813  0.97799  0.15559     N
O102   0.88069  0.34944  0.21523     O
N103   0.99983  0.32983  0.15286     N
N104   0.02201  0.50014  0.15559     N
O105   0.78883  0.23329  0.15894     O
O106   0.78493   0.1124  0.10171     O
H107    0.7873    0.154    0.116     H
O108   0.86996  0.07475   0.0615     O
N109   0.99724  0.22443  0.09748     N
H110    0.0134   0.1939   0.0763     H
N111   0.37608  0.44465   0.1158     N
C112   0.85516  0.12423    0.089     C
C113    0.9207  0.20474  0.10955     C
C114   0.92267  0.27074  0.14419     C
C115   0.85982  0.28564  0.17466     C
C116   0.04354      0.3  0.12438     C
C117   0.12977  0.33898  0.12279     C
C118    0.1661  0.29477   0.1367     C
H119    0.1356    0.241    0.148     H
C120   0.24715  0.32974   0.1338     C
H121    0.2713   0.2999   0.1437     H
C122   0.29207  0.40967   0.1163     C
C123   0.25708  0.45501   0.1024     C
H124    0.2877   0.5088   0.0907     H
C125   0.17578  0.41938    0.106     C
H126    0.1517   0.4495   0.0971     H
C127   0.41785  0.41024   0.0827     C
H128    0.3978   0.3631   0.0503     H
C129   0.49341  0.45853    0.107     C
H130    0.5351   0.4503    0.093     H
C131   0.42841  0.51155   0.1592     C
H132    0.4155    0.546    0.188     H
O133   0.76671  0.55554  0.15894     O
O134    0.8876  0.67253  0.10171     O
H135     0.846   0.6333    0.116     H
O136   0.92525  0.79521   0.0615     O
N137   0.77557  0.77281  0.09748     N
H138    0.8061   0.8195   0.0763     H
N139   0.55535  0.93143   0.1158     N
C140   0.87577  0.73093    0.089     C
C141   0.79526  0.71596  0.10955     C
C142   0.72926  0.65193  0.14419     C
C143   0.71436  0.57418  0.17466     C
C144       0.7  0.74354  0.12438     C
C145   0.66102  0.79079  0.12279     C
C146   0.70523  0.87133   0.1367     C
H147     0.759   0.8946    0.148     H
C148   0.67026  0.91741   0.1338     C
H149    0.7001   0.9714   0.1437     H
C150   0.59033   0.8824   0.1163     C
C151   0.54499  0.80207   0.1024     C
H152    0.4912   0.7789   0.0907     H
C153   0.58062   0.7564    0.106     C
H154    0.5505   0.7022   0.0971     H
C155   0.58976  0.00761   0.0827     C
H156    0.6369   0.0347   0.0503     H
C157   0.54147  0.03488    0.107     C
H158    0.5497   0.0848    0.093     H
C159   0.48845  0.91686   0.1592     C
H160     0.454   0.8695    0.188     H
O161   0.44446  0.21117  0.15894     O
O162   0.32747  0.21507  0.10171     O
H163    0.3667   0.2127    0.116     H
O164   0.20479  0.13004   0.0615     O
N165   0.22719  0.00276  0.09748     N
H166    0.1805   0.9866   0.0763     H
N167   0.06857  0.62392   0.1158     N
C168   0.26907  0.14484    0.089     C
C169   0.28404   0.0793  0.10955     C
C170   0.34807  0.07733  0.14419     C
C171   0.42582  0.14018  0.17466     C
C172   0.25646  0.95646  0.12438     C
C173   0.20921  0.87023  0.12279     C
C174   0.12867   0.8339   0.1367     C
H175    0.1054   0.8644    0.148     H
C176   0.08259  0.75285   0.1338     C
H177    0.0286   0.7287   0.1437     H
C178    0.1176  0.70793   0.1163     C
C179   0.19793  0.74292   0.1024     C
H180    0.2211   0.7123   0.0907     H
C181    0.2436  0.82422    0.106     C
H182    0.2978   0.8483   0.0971     H
C183   0.99239  0.58215   0.0827     C
H184    0.9653   0.6022   0.0503     H
C185   0.96512  0.50659    0.107     C
H186    0.9152   0.4649    0.093     H
C187   0.08314  0.57159   0.1592     C
H188    0.1305   0.5845    0.188     H
O189     0.056   0.9582    0.098     O
H190    0.0111   0.9551    0.098     H
H191    0.0913   0.0035   0.1163     H
H192     0.944   0.9551    0.598     H
O193    0.9022   0.9582    0.598     O
H194    0.9122   0.0035   0.6163     H
O195    0.0978    0.056    0.902     O
H196     0.056   0.0111    0.902     H
H197    0.0878   0.0913   0.8837     H
H198    0.9551   0.0111    0.402     H
O199    0.9582    0.056    0.402     O
H200    0.0035   0.0913   0.3837     H
O201    0.0418    0.944    0.598     O
H202    0.0449   0.9889    0.598     H
H203    0.9965   0.9087   0.6163     H
O204    0.9022    0.944    0.098     O
H205     0.944   0.9889    0.098     H
H206    0.9122   0.9087   0.1163     H
O207    0.0418   0.0978    0.098     O
H208    0.0449    0.056    0.098     H
H209    0.9965   0.0878   0.1163     H
O210    0.9582   0.9022    0.902     O
H211    0.9551    0.944    0.902     H
H212    0.0035   0.9122   0.8837     H
O213    0.0978   0.0418    0.402     O
H214     0.056   0.0449    0.402     H
H215    0.0878   0.9965   0.3837     H
Ni216  0.41255  0.41255     0.75    Ni
O217   0.65056  0.11931  0.71523     O
O218   0.76671  0.21117  0.65894     O
O219    0.8876  0.21507  0.60171     O
H220     0.846   0.2127    0.616     H
O221   0.92525  0.13004   0.5615     O
N222   0.67017  0.00017  0.65286     N
N223   0.77557  0.00276  0.59748     N
H224    0.8061   0.9866   0.5763     H
N225   0.55535  0.62392   0.6158     N
N226   0.47813  0.50014  0.65559     N
C227   0.87577  0.14484    0.589     C
C228   0.79526   0.0793  0.60955     C
C229   0.72926  0.07733  0.64419     C
C230   0.71436  0.14018  0.67466     C
C231       0.7  0.95646  0.62438     C
C232   0.66102  0.87023  0.62279     C
C233   0.70523   0.8339   0.6367     C
H234     0.759   0.8644    0.648     H
C235   0.67026  0.75285   0.6338     C
H236    0.7001   0.7287   0.6437     H
C237   0.59033  0.70793   0.6163     C
C238   0.54499  0.74292   0.6024     C
H239    0.4912   0.7123   0.5907     H
C240   0.58062  0.82422    0.606     C
H241    0.5505   0.8483   0.5971     H
C242   0.58976  0.58215   0.5827     C
H243    0.6369   0.6022   0.5503     H
C244   0.54147  0.50659    0.607     C
H245    0.5497   0.4649    0.593     H
C246   0.48845  0.57159   0.6592     C
H247     0.454   0.5845    0.688     H
O248   0.46875  0.34944  0.71523     O
O249   0.44446  0.23329  0.65894     O
O250   0.32747   0.1124  0.60171     O
H251    0.3667    0.154    0.616     H
O252   0.20479  0.07475   0.5615     O
N253      0.33  0.32983  0.65286     N
N254   0.22719  0.22443  0.59748     N
H255    0.1805   0.1939   0.5763     H
N256   0.06857  0.44465   0.6158     N
N257   0.02201  0.52187  0.65559     N
C258   0.26907  0.12423    0.589     C
C259   0.28404  0.20474  0.60955     C
C260   0.34807  0.27074  0.64419     C
C261   0.42582  0.28564  0.67466     C
C262   0.25646      0.3  0.62438     C
C263   0.20921  0.33898  0.62279     C
C264   0.12867  0.29477   0.6367     C
H265    0.1054    0.241    0.648     H
C266   0.08259  0.32974   0.6338     C
H267    0.0286   0.2999   0.6437     H
C268    0.1176  0.40967   0.6163     C
C269   0.19793  0.45501   0.6024     C
H270    0.2211   0.5088   0.5907     H
C271    0.2436  0.41938    0.606     C
H272    0.2978   0.4495   0.5971     H
C273   0.99239  0.41024   0.5827     C
H274    0.9653   0.3631   0.5503     H
C275   0.96512  0.45853    0.607     C
H276    0.9152   0.4503    0.593     H
C277   0.08314  0.51155   0.6592     C
H278    0.1305    0.546    0.688     H
Ni279  0.58745      0.0     0.75    Ni
Ni280      0.0  0.58745     0.75    Ni
O281   0.34944  0.46875  0.78477     O
N282   0.32983     0.33  0.84714     N
N283   0.50014  0.47813  0.84441     N
O284   0.88069  0.53125  0.71523     O
O285   0.78883  0.55554  0.65894     O
O286   0.78493  0.67253  0.60171     O
H287    0.7873   0.6333    0.616     H
O288   0.86996  0.79521   0.5615     O
N289   0.99983     0.67  0.65286     N
N290   0.99724  0.77281  0.59748     N
H291    0.0134   0.8195   0.5763     H
N292   0.37608  0.93143   0.6158     N
N293   0.49986  0.97799  0.65559     N
C294   0.85516  0.73093    0.589     C
C295    0.9207  0.71596  0.60955     C
C296   0.92267  0.65193  0.64419     C
C297   0.85982  0.57418  0.67466     C
C298   0.04354  0.74354  0.62438     C
C299   0.12977  0.79079  0.62279     C
C300    0.1661  0.87133   0.6367     C
H301    0.1356   0.8946    0.648     H
C302   0.24715  0.91741   0.6338     C
H303    0.2713   0.9714   0.6437     H
C304   0.29207   0.8824   0.6163     C
C305   0.25708  0.80207   0.6024     C
H306    0.2877   0.7789   0.5907     H
C307   0.17578   0.7564    0.606     C
H308    0.1517   0.7022   0.5971     H
C309   0.41785  0.00761   0.5827     C
H310    0.3978   0.0347   0.5503     H
C311   0.49341  0.03488    0.607     C
H312    0.5351   0.0848    0.593     H
C313   0.42841  0.91686   0.6592     C
H314    0.4155   0.8695    0.688     H
O315   0.53125  0.88069  0.78477     O
N316      0.67  0.99983  0.84714     N
N317   0.52187  0.02201  0.84441     N
O318   0.11931  0.65056  0.78477     O
N319   0.00017  0.67017  0.84714     N
N320   0.97799  0.49986  0.84441     N
O321   0.21117  0.76671  0.84106     O
O322   0.21507   0.8876  0.89829     O
H323    0.2127    0.846    0.884     H
O324   0.13004  0.92525   0.9385     O
N325   0.00276  0.77557  0.90252     N
H326    0.9866   0.8061   0.9237     H
N327   0.62392  0.55535   0.8842     N
C328   0.14484  0.87577    0.911     C
C329    0.0793  0.79526  0.89045     C
C330   0.07733  0.72926  0.85581     C
C331   0.14018  0.71436  0.82534     C
C332   0.95646      0.7  0.87562     C
C333   0.87023  0.66102  0.87721     C
C334    0.8339  0.70523   0.8633     C
H335    0.8644    0.759    0.852     H
C336   0.75285  0.67026   0.8662     C
H337    0.7287   0.7001   0.8563     H
C338   0.70793  0.59033   0.8837     C
C339   0.74292  0.54499   0.8976     C
H340    0.7123   0.4912   0.9093     H
C341   0.82422  0.58062    0.894     C
H342    0.8483   0.5505   0.9029     H
C343   0.58215  0.58976   0.9173     C
H344    0.6022   0.6369   0.9497     H
C345   0.50659  0.54147    0.893     C
H346    0.4649   0.5497    0.907     H
C347   0.57159  0.48845   0.8408     C
H348    0.5845    0.454    0.812     H
O349   0.23329  0.44446  0.84106     O
O350    0.1124  0.32747  0.89829     O
H351     0.154   0.3667    0.884     H
O352   0.07475  0.20479   0.9385     O
N353   0.22443  0.22719  0.90252     N
H354    0.1939   0.1805   0.9237     H
N355   0.44465  0.06857   0.8842     N
C356   0.12423  0.26907    0.911     C
C357   0.20474  0.28404  0.89045     C
C358   0.27074  0.34807  0.85581     C
C359   0.28564  0.42582  0.82534     C
C360       0.3  0.25646  0.87562     C
C361   0.33898  0.20921  0.87721     C
C362   0.29477  0.12867   0.8633     C
H363     0.241   0.1054    0.852     H
C364   0.32974  0.08259   0.8662     C
H365    0.2999   0.0286   0.8563     H
C366   0.40967   0.1176   0.8837     C
C367   0.45501  0.19793   0.8976     C
H368    0.5088   0.2211   0.9093     H
C369   0.41938   0.2436    0.894     C
H370    0.4495   0.2978   0.9029     H
C371   0.41024  0.99239   0.9173     C
H372    0.3631   0.9653   0.9497     H
C373   0.45853  0.96512    0.893     C
H374    0.4503   0.9152    0.907     H
C375   0.51155  0.08314   0.8408     C
H376     0.546   0.1305    0.812     H
O377   0.55554  0.78883  0.84106     O
O378   0.67253  0.78493  0.89829     O
H379    0.6333   0.7873    0.884     H
O380   0.79521  0.86996   0.9385     O
N381   0.77281  0.99724  0.90252     N
H382    0.8195   0.0134   0.9237     H
N383   0.93143  0.37608   0.8842     N
C384   0.73093  0.85516    0.911     C
C385   0.71596   0.9207  0.89045     C
C386   0.65193  0.92267  0.85581     C
C387   0.57418  0.85982  0.82534     C
C388   0.74354  0.04354  0.87562     C
C389   0.79079  0.12977  0.87721     C
C390   0.87133   0.1661   0.8633     C
H391    0.8946   0.1356    0.852     H
C392   0.91741  0.24715   0.8662     C
H393    0.9714   0.2713   0.8563     H
C394    0.8824  0.29207   0.8837     C
C395   0.80207  0.25708   0.8976     C
H396    0.7789   0.2877   0.9093     H
C397    0.7564  0.17578    0.894     C
H398    0.7022   0.1517   0.9029     H
C399   0.00761  0.41785   0.9173     C
H400    0.0347   0.3978   0.9497     H
C401   0.03488  0.49341    0.893     C
H402    0.0848   0.5351    0.907     H
C403   0.91686  0.42841   0.8408     C
H404    0.8695   0.4155    0.812     H
H405    0.9889   0.0449    0.902     H
O406     0.944   0.0418    0.902     O
H407    0.9087   0.9965   0.8837     H
O408     0.056   0.0978    0.598     O
H409    0.0111    0.056    0.598     H
H410    0.0913   0.0878   0.6163     H
O411     0.944   0.9022    0.402     O
H412    0.9889    0.944    0.402     H
H413    0.9087   0.9122   0.3837     H
loop_
_geom_bond_atom_site_label_1
_geom_bond_atom_site_label_2
_geom_bond_distance
_geom_bond_site_symmetry_2
_ccdc_geom_bond_type
H4    O2     1.65926       .     S
O2    H4     1.65926       .     S
H8    O213   2.23568       .     S
O213  H8     2.23568       .     S
H8    O252   2.28420       .     S
O252  H8     2.28420       .     S
H35   O33    1.65926       .     S
O33   H35    1.65926       .     S
H39   O288   2.28420       .     S
O288  H39    2.28420       .     S
H39   O411   2.23568       .     S
O411  H39    2.23568       .     S
H71   O69    1.65926       .     S
O69   H71    1.65926       .     S
H75   O199   2.23568       .     S
O199  H75    2.23568       .     S
H75   O221   2.28420       .     S
O221  H75    2.28420       .     S
H107  O105   1.65926       .     S
O105  H107   1.65926       .     S
H110  O207   2.23568       .     S
O207  H110   2.23568       .     S
H110  O352   2.28420   1_554     S
O352  H110   2.28420   1_556     S
H135  O133   1.65926       .     S
O133  H135   1.65926       .     S
H138  O204   2.23568       .     S
O204  H138   2.23568       .     S
H138  O380   2.28420   1_554     S
O380  H138   2.28420   1_556     S
H163  O161   1.65926       .     S
O161  H163   1.65926       .     S
H166  O189   2.23568       .     S
O189  H166   2.23568       .     S
H166  O324   2.28420   1_554     S
O324  H166   2.28420   1_556     S
H190  O204   2.03302   1_455     S
O204  H190   2.03302   1_655     S
H190  O207   2.54814   1_565     S
O207  H190   2.54815   1_545     S
H191  O164   2.49097       .     S
O164  H191   2.49097       .     S
H191  O207   2.49250       .     S
O207  H191   2.49250       .     S
H192  O201   2.03302   1_655     S
O201  H192   2.03302   1_455     S
H192  O408   2.54814   1_665     S
O408  H192   2.54814   1_445     S
H194  O221   2.49096       .     S
O221  H194   2.49096       .     S
H194  O408   2.49250   1_655     S
O408  H194   2.49250   1_455     S
H196  O210   2.03302   1_445     S
O210  H196   2.03302   1_665     S
H196  O406   2.54815   1_455     S
O406  H196   2.54815   1_655     S
H197  O352   2.49097       .     S
O352  H197   2.49097       .     S
H197  O406   2.49250   1_455     S
O406  H197   2.49250   1_655     S
H198  O213   2.54814   1_655     S
O213  H198   2.54814   1_455     S
H198  O411   2.03302   1_545     S
O411  H198   2.03302   1_565     S
H200  O72    2.49097       .     S
O72   H200   2.49097       .     S
H200  O213   2.49250       .     S
O213  H200   2.49250       .     S
H202  O193   2.54815   1_455     S
O193  H202   2.54815   1_655     S
H202  O408   2.03302   1_565     S
O408  H202   2.03302   1_545     S
H203  O193   2.49250       .     S
O193  H203   2.49250       .     S
H203  O288   2.49096       .     S
O288  H203   2.49096       .     S
H205  O189   2.54815   1_655     S
O189  H205   2.54815   1_455     S
H205  O207   2.03302   1_665     S
O207  H205   2.03302   1_445     S
H206  O136   2.49097       .     S
O136  H206   2.49097       .     S
H206  O189   2.49250   1_655     S
O189  H206   2.49250   1_455     S
H208  O189   2.03302   1_545     S
O189  H208   2.03302   1_565     S
H208  O204   2.54814   1_445     S
O204  H208   2.54814   1_665     S
H209  O108   2.49097       .     S
O108  H209   2.49097       .     S
H209  O204   2.49250   1_545     S
O204  H209   2.49250   1_565     S
H211  O195   2.54814   1_665     S
O195  H211   2.54814   1_445     S
H211  O406   2.03302   1_565     S
O406  H211   2.03302   1_545     S
H212  O195   2.49250   1_565     S
O195  H212   2.49250   1_545     S
H212  O324   2.49097       .     S
O324  H212   2.49097       .     S
H214  O199   2.03302   1_455     S
O199  H214   2.03302   1_655     S
H214  O411   2.54815   1_445     S
O411  H214   2.54815   1_665     S
H215  O5     2.49097       .     S
O5    H215   2.49097       .     S
H215  O411   2.49250   1_455     S
O411  H215   2.49250   1_655     S
H220  O218   1.65926       .     S
O218  H220   1.65926       .     S
H224  O36    2.28420       .     S
O36   H224   2.28420       .     S
H224  O193   2.23568       .     S
O193  H224   2.23568       .     S
H251  O249   1.65926       .     S
O249  H251   1.65926       .     S
H255  O72    2.28420       .     S
O72   H255   2.28420       .     S
H255  O408   2.23568       .     S
O408  H255   2.23568       .     S
H287  O285   1.65926       .     S
O285  H287   1.65926       .     S
H291  O5     2.28420       .     S
O5    H291   2.28420       .     S
H291  O201   2.23568       .     S
O201  H291   2.23568       .     S
H323  O321   1.65926       .     S
O321  H323   1.65926       .     S
H326  O136   2.28420   1_556     S
O136  H326   2.28420   1_554     S
H326  O210   2.23568       .     S
O210  H326   2.23568       .     S
H351  O349   1.65926       .     S
O349  H351   1.65926       .     S
H354  O164   2.28420   1_556     S
O164  H354   2.28420   1_554     S
H354  O195   2.23568       .     S
O195  H354   2.23568       .     S
H379  O377   1.65926       .     S
O377  H379   1.65926       .     S
H382  O108   2.28420   1_556     S
O108  H382   2.28420   1_554     S
H382  O406   2.23568       .     S
O406  H382   2.23568       .     S
H405  O195   2.03302   1_655     S
O195  H405   2.03302   1_455     S
H405  O210   2.54815   1_545     S
O210  H405   2.54815   1_565     S
H407  O210   2.49250       .     S
O210  H407   2.49250       .     S
H407  O380   2.49097       .     S
O380  H407   2.49097       .     S
H409  O193   2.03302   1_445     S
O193  H409   2.03302   1_665     S
H409  O201   2.54814   1_545     S
O201  H409   2.54814   1_565     S
H410  O201   2.49250   1_545     S
O201  H410   2.49250   1_565     S
H410  O252   2.49097       .     S
O252  H410   2.49097       .     S
H412  O199   2.54814   1_565     S
O199  H412   2.54814   1_545     S
H412  O213   2.03302   1_665     S
O213  H412   2.03302   1_445     S
H413  O36    2.49097       .     S
O36   H413   2.49097       .     S
H413  O199   2.49250   1_565     S
O199  H413   2.49250   1_545     S
Ni0   N10    2.06393       .     S
N10   Ni0    2.06393       .     S
Ni0   O32    2.08664       .     S
O32   Ni0    2.08664       .     S
Ni0   N37    2.14469       .     S
N37   Ni0    2.14469       .     S
Ni0   O65    2.08663       .     S
O65   Ni0    2.08663       .     S
Ni0   N66    2.14469       .     S
N66   Ni0    2.14469       .     S
Ni0   N67    2.06393       .     S
N67   Ni0    2.06393       .     S
O1    C14    1.25029       .     S
C14   O1     1.25029       .     S
O1    Ni63   2.08663   1_565     S
Ni63  O1     2.08663   1_545     S
O2    C14    1.26920       .     S
C14   O2     1.26920       .     S
O3    H4     0.81920       .     S
H4    O3     0.81920       .     S
O3    C11    1.28882       .     S
C11   O3     1.28882       .     S
O5    C11    1.20951       .     S
C11   O5     1.20951       .     S
N6    C13    1.37484       .     S
C13   N6     1.37484       .     S
N6    C15    1.32089   1_565     S
C15   N6     1.32089   1_545     S
N6    Ni63   2.14469   1_565     S
Ni63  N6     2.14469   1_545     S
N7    H8     0.86091   1_565     S
H8    N7     0.86091   1_545     S
N7    C12    1.35964       .     S
C12   N7     1.35964       .     S
N7    C15    1.35012   1_565     S
C15   N7     1.35012   1_545     S
N9    C21    1.43167       .     S
C21   N9     1.43167       .     S
N9    C26    1.38018       .     S
C26   N9     1.38018       .     S
N9    C30    1.34898       .     S
C30   N9     1.34898       .     S
N10   C28    1.37615       .     S
C28   N10    1.37615       .     S
N10   C30    1.31119       .     S
C30   N10    1.31119       .     S
C11   C12    1.48287       .     S
C12   C11    1.48287       .     S
C12   C13    1.36913       .     S
C13   C12    1.36913       .     S
C13   C14    1.46788       .     S
C14   C13    1.46788       .     S
C15   C16    1.46510       .     S
C16   C15    1.46510       .     S
C16   C17    1.38310       .     S
C17   C16    1.38310       .     S
C16   C24    1.38997       .     S
C24   C16    1.38997       .     S
C17   H18    0.92935       .     S
H18   C17    0.92935       .     S
C17   C19    1.37976       .     S
C19   C17    1.37976       .     S
C19   H20    0.92864       .     S
H20   C19    0.92864       .     S
C19   C21    1.38272       .     S
C21   C19    1.38272       .     S
C21   C22    1.38113       .     S
C22   C21    1.38113       .     S
C22   H23    0.93089       .     S
H23   C22    0.93089       .     S
C22   C24    1.38354       .     S
C24   C22    1.38354       .     S
C24   H25    0.93025       .     S
H25   C24    0.93025       .     S
C26   H27    0.92974       .     S
H27   C26    0.92974       .     S
C26   C28    1.34500       .     S
C28   C26    1.34500       .     S
C28   H29    0.93034       .     S
H29   C28    0.93034       .     S
C30   H31    0.92947       .     S
H31   C30    0.92947       .     S
O32   C45    1.25029       .     S
C45   O32    1.25029       .     S
O33   C45    1.26920       .     S
C45   O33    1.26920       .     S
O34   H35    0.81920       .     S
H35   O34    0.81920       .     S
O34   C42    1.28882       .     S
C42   O34    1.28882       .     S
O36   C42    1.20951       .     S
C42   O36    1.20951       .     S
N37   C44    1.37484       .     S
C44   N37    1.37484       .     S
N37   C46    1.32089       .     S
C46   N37    1.32089       .     S
N38   H39    0.86091       .     S
H39   N38    0.86091       .     S
N38   C43    1.35964       .     S
C43   N38    1.35964       .     S
N38   C46    1.35012       .     S
C46   N38    1.35012       .     S
N40   C52    1.43167       .     S
C52   N40    1.43167       .     S
N40   C57    1.38018   1_655     S
C57   N40    1.38018   1_455     S
N40   C61    1.34898       .     S
C61   N40    1.34898       .     S
N41   C59    1.37615   1_655     S
C59   N41    1.37615   1_455     S
N41   C61    1.31119       .     S
C61   N41    1.31119       .     S
N41   Ni64   2.06393   1_655     S
Ni64  N41    2.06393   1_455     S
C42   C43    1.48287       .     S
C43   C42    1.48287       .     S
C43   C44    1.36913       .     S
C44   C43    1.36913       .     S
C44   C45    1.46788       .     S
C45   C44    1.46788       .     S
C46   C47    1.46511       .     S
C47   C46    1.46511       .     S
C47   C48    1.38310       .     S
C48   C47    1.38310       .     S
C47   C55    1.38997       .     S
C55   C47    1.38997       .     S
C48   H49    0.92935       .     S
H49   C48    0.92935       .     S
C48   C50    1.37976       .     S
C50   C48    1.37976       .     S
C50   H51    0.92864       .     S
H51   C50    0.92864       .     S
C50   C52    1.38272       .     S
C52   C50    1.38272       .     S
C52   C53    1.38112       .     S
C53   C52    1.38112       .     S
C53   H54    0.93089       .     S
H54   C53    0.93089       .     S
C53   C55    1.38354       .     S
C55   C53    1.38354       .     S
C55   H56    0.93025       .     S
H56   C55    0.93025       .     S
C57   H58    0.92974       .     S
H58   C57    0.92974       .     S
C57   C59    1.34500       .     S
C59   C57    1.34500       .     S
C59   H60    0.93034       .     S
H60   C59    0.93034       .     S
C61   H62    0.92947       .     S
H62   C61    0.92947       .     S
Ni63  N77    2.06393       .     S
N77   Ni63   2.06393       .     S
Ni63  O99    2.08663       .     S
O99   Ni63   2.08663       .     S
Ni63  N100   2.14469       .     S
N100  Ni63   2.14469       .     S
Ni63  N101   2.06393   1_545     S
N101  Ni63   2.06393   1_565     S
Ni64  O68    2.08663       .     S
O68   Ni64   2.08663       .     S
Ni64  N73    2.14469       .     S
N73   Ni64   2.14469       .     S
Ni64  O102   2.08663   1_455     S
O102  Ni64   2.08663   1_655     S
Ni64  N103   2.14469   1_455     S
N103  Ni64   2.14469   1_655     S
Ni64  N104   2.06393       .     S
N104  Ni64   2.06393       .     S
O65   C143   1.25029       .     S
C143  O65    1.25029       .     S
N66   C142   1.37485       .     S
C142  N66    1.37485       .     S
N66   C144   1.32089       .     S
C144  N66    1.32089       .     S
N67   C129   1.37614       .     S
C129  N67    1.37614       .     S
N67   C131   1.31119       .     S
C131  N67    1.31119       .     S
O68   C81    1.25029       .     S
C81   O68    1.25029       .     S
O69   C81    1.26920       .     S
C81   O69    1.26920       .     S
O70   H71    0.81920       .     S
H71   O70    0.81920       .     S
O70   C78    1.28882       .     S
C78   O70    1.28882       .     S
O72   C78    1.20951       .     S
C78   O72    1.20951       .     S
N73   C80    1.37484       .     S
C80   N73    1.37484       .     S
N73   C82    1.32089   1_455     S
C82   N73    1.32089   1_655     S
N74   H75    0.86091   1_455     S
H75   N74    0.86091   1_655     S
N74   C79    1.35964       .     S
C79   N74    1.35964       .     S
N74   C82    1.35012   1_455     S
C82   N74    1.35012   1_655     S
N76   C88    1.43167       .     S
C88   N76    1.43167       .     S
N76   C93    1.38018   1_545     S
C93   N76    1.38018   1_565     S
N76   C97    1.34898       .     S
C97   N76    1.34898       .     S
N77   C95    1.37614   1_545     S
C95   N77    1.37614   1_565     S
N77   C97    1.31119       .     S
C97   N77    1.31119       .     S
C78   C79    1.48287       .     S
C79   C78    1.48287       .     S
C79   C80    1.36913       .     S
C80   C79    1.36913       .     S
C80   C81    1.46788       .     S
C81   C80    1.46788       .     S
C82   C83    1.46511       .     S
C83   C82    1.46511       .     S
C83   C84    1.38310       .     S
C84   C83    1.38310       .     S
C83   C91    1.38997       .     S
C91   C83    1.38997       .     S
C84   H85    0.92935       .     S
H85   C84    0.92935       .     S
C84   C86    1.37975       .     S
C86   C84    1.37975       .     S
C86   H87    0.92864       .     S
H87   C86    0.92864       .     S
C86   C88    1.38272       .     S
C88   C86    1.38272       .     S
C88   C89    1.38112       .     S
C89   C88    1.38112       .     S
C89   H90    0.93089       .     S
H90   C89    0.93089       .     S
C89   C91    1.38354       .     S
C91   C89    1.38354       .     S
C91   H92    0.93025       .     S
H92   C91    0.93025       .     S
C93   H94    0.92974       .     S
H94   C93    0.92974       .     S
C93   C95    1.34500       .     S
C95   C93    1.34500       .     S
C95   H96    0.93034       .     S
H96   C95    0.93034       .     S
C97   H98    0.92947       .     S
H98   C97    0.92947       .     S
O99   C171   1.25029       .     S
C171  O99    1.25029       .     S
N100  C170   1.37484       .     S
C170  N100   1.37484       .     S
N100  C172   1.32089   1_545     S
C172  N100   1.32089   1_565     S
N101  C157   1.37614   1_565     S
C157  N101   1.37614   1_545     S
N101  C159   1.31119       .     S
C159  N101   1.31119       .     S
O102  C115   1.25029       .     S
C115  O102   1.25029       .     S
N103  C114   1.37484       .     S
C114  N103   1.37484       .     S
N103  C116   1.32089   1_655     S
C116  N103   1.32089   1_455     S
N104  C185   1.37614   1_455     S
C185  N104   1.37614   1_655     S
N104  C187   1.31119       .     S
C187  N104   1.31119       .     S
O105  C115   1.26920       .     S
C115  O105   1.26920       .     S
O106  H107   0.81920       .     S
H107  O106   0.81920       .     S
O106  C112   1.28882       .     S
C112  O106   1.28882       .     S
O108  C112   1.20951       .     S
C112  O108   1.20951       .     S
N109  H110   0.86091   1_655     S
H110  N109   0.86091   1_455     S
N109  C113   1.35964       .     S
C113  N109   1.35964       .     S
N109  C116   1.35012   1_655     S
C116  N109   1.35012   1_455     S
N111  C122   1.43167       .     S
C122  N111   1.43167       .     S
N111  C127   1.38018       .     S
C127  N111   1.38018       .     S
N111  C131   1.34898       .     S
C131  N111   1.34898       .     S
C112  C113   1.48287       .     S
C113  C112   1.48287       .     S
C113  C114   1.36913       .     S
C114  C113   1.36913       .     S
C114  C115   1.46788       .     S
C115  C114   1.46788       .     S
C116  C117   1.46510       .     S
C117  C116   1.46510       .     S
C117  C118   1.38310       .     S
C118  C117   1.38310       .     S
C117  C125   1.38998       .     S
C125  C117   1.38998       .     S
C118  H119   0.92935       .     S
H119  C118   0.92935       .     S
C118  C120   1.37976       .     S
C120  C118   1.37976       .     S
C120  H121   0.92864       .     S
H121  C120   0.92864       .     S
C120  C122   1.38272       .     S
C122  C120   1.38272       .     S
C122  C123   1.38112       .     S
C123  C122   1.38112       .     S
C123  H124   0.93089       .     S
H124  C123   0.93089       .     S
C123  C125   1.38354       .     S
C125  C123   1.38354       .     S
C125  H126   0.93025       .     S
H126  C125   0.93025       .     S
C127  H128   0.92974       .     S
H128  C127   0.92974       .     S
C127  C129   1.34500       .     S
C129  C127   1.34500       .     S
C129  H130   0.93034       .     S
H130  C129   0.93034       .     S
C131  H132   0.92947       .     S
H132  C131   0.92947       .     S
O133  C143   1.26920       .     S
C143  O133   1.26920       .     S
O134  H135   0.81920       .     S
H135  O134   0.81920       .     S
O134  C140   1.28882       .     S
C140  O134   1.28882       .     S
O136  C140   1.20951       .     S
C140  O136   1.20951       .     S
N137  H138   0.86091       .     S
H138  N137   0.86091       .     S
N137  C141   1.35964       .     S
C141  N137   1.35964       .     S
N137  C144   1.35012       .     S
C144  N137   1.35012       .     S
N139  C150   1.43167       .     S
C150  N139   1.43167       .     S
N139  C155   1.38018   1_565     S
C155  N139   1.38018   1_545     S
N139  C159   1.34898       .     S
C159  N139   1.34898       .     S
C140  C141   1.48287       .     S
C141  C140   1.48287       .     S
C141  C142   1.36913       .     S
C142  C141   1.36913       .     S
C142  C143   1.46788       .     S
C143  C142   1.46788       .     S
C144  C145   1.46511       .     S
C145  C144   1.46511       .     S
C145  C146   1.38310       .     S
C146  C145   1.38310       .     S
C145  C153   1.38997       .     S
C153  C145   1.38997       .     S
C146  H147   0.92935       .     S
H147  C146   0.92935       .     S
C146  C148   1.37975       .     S
C148  C146   1.37975       .     S
C148  H149   0.92864       .     S
H149  C148   0.92864       .     S
C148  C150   1.38272       .     S
C150  C148   1.38272       .     S
C150  C151   1.38112       .     S
C151  C150   1.38112       .     S
C151  H152   0.93089       .     S
H152  C151   0.93089       .     S
C151  C153   1.38354       .     S
C153  C151   1.38354       .     S
C153  H154   0.93025       .     S
H154  C153   0.93025       .     S
C155  H156   0.92974       .     S
H156  C155   0.92974       .     S
C155  C157   1.34500       .     S
C157  C155   1.34500       .     S
C157  H158   0.93034       .     S
H158  C157   0.93034       .     S
C159  H160   0.92947       .     S
H160  C159   0.92947       .     S
O161  C171   1.26920       .     S
C171  O161   1.26920       .     S
O162  H163   0.81920       .     S
H163  O162   0.81920       .     S
O162  C168   1.28882       .     S
C168  O162   1.28882       .     S
O164  C168   1.20951       .     S
C168  O164   1.20951       .     S
N165  H166   0.86091   1_545     S
H166  N165   0.86091   1_565     S
N165  C169   1.35964       .     S
C169  N165   1.35964       .     S
N165  C172   1.35012   1_545     S
C172  N165   1.35012   1_565     S
N167  C178   1.43167       .     S
C178  N167   1.43167       .     S
N167  C183   1.38018   1_455     S
C183  N167   1.38018   1_655     S
N167  C187   1.34898       .     S
C187  N167   1.34898       .     S
C168  C169   1.48287       .     S
C169  C168   1.48287       .     S
C169  C170   1.36913       .     S
C170  C169   1.36913       .     S
C170  C171   1.46788       .     S
C171  C170   1.46788       .     S
C172  C173   1.46511       .     S
C173  C172   1.46511       .     S
C173  C174   1.38310       .     S
C174  C173   1.38310       .     S
C173  C181   1.38997       .     S
C181  C173   1.38997       .     S
C174  H175   0.92935       .     S
H175  C174   0.92935       .     S
C174  C176   1.37975       .     S
C176  C174   1.37975       .     S
C176  H177   0.92864       .     S
H177  C176   0.92864       .     S
C176  C178   1.38272       .     S
C178  C176   1.38272       .     S
C178  C179   1.38112       .     S
C179  C178   1.38112       .     S
C179  H180   0.93089       .     S
H180  C179   0.93089       .     S
C179  C181   1.38354       .     S
C181  C179   1.38354       .     S
C181  H182   0.93025       .     S
H182  C181   0.93025       .     S
C183  H184   0.92974       .     S
H184  C183   0.92974       .     S
C183  C185   1.34500       .     S
C185  C183   1.34500       .     S
C185  H186   0.93034       .     S
H186  C185   0.93034       .     S
C187  H188   0.92947       .     S
H188  C187   0.92947       .     S
O189  H190   0.85071       .     S
H190  O189   0.85071       .     S
O189  H191   0.84977   1_565     S
H191  O189   0.84977   1_545     S
H192  O193   0.85071       .     S
O193  H192   0.85071       .     S
O193  H194   0.84977   1_565     S
H194  O193   0.84977   1_545     S
O195  H196   0.85071       .     S
H196  O195   0.85071       .     S
O195  H197   0.84977       .     S
H197  O195   0.84977       .     S
H198  O199   0.85071       .     S
O199  H198   0.85071       .     S
O199  H200   0.84977   1_655     S
H200  O199   0.84977   1_455     S
O201  H202   0.85071       .     S
H202  O201   0.85071       .     S
O201  H203   0.84977   1_455     S
H203  O201   0.84977   1_655     S
O204  H205   0.85071       .     S
H205  O204   0.85071       .     S
O204  H206   0.84977       .     S
H206  O204   0.84977       .     S
O207  H208   0.85071       .     S
H208  O207   0.85071       .     S
O207  H209   0.84977   1_455     S
H209  O207   0.84977   1_655     S
O210  H211   0.85071       .     S
H211  O210   0.85071       .     S
O210  H212   0.84977   1_655     S
H212  O210   0.84977   1_455     S
O213  H214   0.85071       .     S
H214  O213   0.85071       .     S
O213  H215   0.84977   1_545     S
H215  O213   0.84977   1_565     S
Ni216 N226   2.06393       .     S
N226  Ni216  2.06393       .     S
Ni216 O248   2.08663       .     S
O248  Ni216  2.08663       .     S
Ni216 N253   2.14469       .     S
N253  Ni216  2.14469       .     S
Ni216 O281   2.08663       .     S
O281  Ni216  2.08663       .     S
Ni216 N282   2.14469       .     S
N282  Ni216  2.14469       .     S
Ni216 N283   2.06393       .     S
N283  Ni216  2.06393       .     S
O217  C230   1.25029       .     S
C230  O217   1.25029       .     S
O217  Ni279  2.08663       .     S
Ni279 O217   2.08663       .     S
O218  C230   1.26920       .     S
C230  O218   1.26920       .     S
O219  H220   0.81920       .     S
H220  O219   0.81920       .     S
O219  C227   1.28882       .     S
C227  O219   1.28882       .     S
O221  C227   1.20951       .     S
C227  O221   1.20951       .     S
N222  C229   1.37484       .     S
C229  N222   1.37484       .     S
N222  C231   1.32089   1_545     S
C231  N222   1.32089   1_565     S
N222  Ni279  2.14469       .     S
Ni279 N222   2.14469       .     S
N223  H224   0.86091   1_545     S
H224  N223   0.86091   1_565     S
N223  C228   1.35964       .     S
C228  N223   1.35964       .     S
N223  C231   1.35012   1_545     S
C231  N223   1.35012   1_565     S
N225  C237   1.43167       .     S
C237  N225   1.43167       .     S
N225  C242   1.38018       .     S
C242  N225   1.38018       .     S
N225  C246   1.34898       .     S
C246  N225   1.34898       .     S
N226  C244   1.37615       .     S
C244  N226   1.37615       .     S
N226  C246   1.31119       .     S
C246  N226   1.31119       .     S
C227  C228   1.48287       .     S
C228  C227   1.48287       .     S
C228  C229   1.36913       .     S
C229  C228   1.36913       .     S
C229  C230   1.46788       .     S
C230  C229   1.46788       .     S
C231  C232   1.46511       .     S
C232  C231   1.46511       .     S
C232  C233   1.38310       .     S
C233  C232   1.38310       .     S
C232  C240   1.38997       .     S
C240  C232   1.38997       .     S
C233  H234   0.92935       .     S
H234  C233   0.92935       .     S
C233  C235   1.37975       .     S
C235  C233   1.37975       .     S
C235  H236   0.92864       .     S
H236  C235   0.92864       .     S
C235  C237   1.38272       .     S
C237  C235   1.38272       .     S
C237  C238   1.38112       .     S
C238  C237   1.38112       .     S
C238  H239   0.93089       .     S
H239  C238   0.93089       .     S
C238  C240   1.38354       .     S
C240  C238   1.38354       .     S
C240  H241   0.93025       .     S
H241  C240   0.93025       .     S
C242  H243   0.92974       .     S
H243  C242   0.92974       .     S
C242  C244   1.34500       .     S
C244  C242   1.34500       .     S
C244  H245   0.93034       .     S
H245  C244   0.93034       .     S
C246  H247   0.92947       .     S
H247  C246   0.92947       .     S
O248  C261   1.25029       .     S
C261  O248   1.25029       .     S
O249  C261   1.26920       .     S
C261  O249   1.26920       .     S
O250  H251   0.81920       .     S
H251  O250   0.81920       .     S
O250  C258   1.28882       .     S
C258  O250   1.28882       .     S
O252  C258   1.20951       .     S
C258  O252   1.20951       .     S
N253  C260   1.37484       .     S
C260  N253   1.37484       .     S
N253  C262   1.32089       .     S
C262  N253   1.32089       .     S
N254  H255   0.86091       .     S
H255  N254   0.86091       .     S
N254  C259   1.35964       .     S
C259  N254   1.35964       .     S
N254  C262   1.35012       .     S
C262  N254   1.35012       .     S
N256  C268   1.43167       .     S
C268  N256   1.43167       .     S
N256  C273   1.38018   1_455     S
C273  N256   1.38018   1_655     S
N256  C277   1.34898       .     S
C277  N256   1.34898       .     S
N257  C275   1.37614   1_455     S
C275  N257   1.37614   1_655     S
N257  C277   1.31119       .     S
C277  N257   1.31119       .     S
N257  Ni280  2.06393       .     S
Ni280 N257   2.06393       .     S
C258  C259   1.48287       .     S
C259  C258   1.48287       .     S
C259  C260   1.36913       .     S
C260  C259   1.36913       .     S
C260  C261   1.46788       .     S
C261  C260   1.46788       .     S
C262  C263   1.46510       .     S
C263  C262   1.46510       .     S
C263  C264   1.38310       .     S
C264  C263   1.38310       .     S
C263  C271   1.38998       .     S
C271  C263   1.38998       .     S
C264  H265   0.92935       .     S
H265  C264   0.92935       .     S
C264  C266   1.37976       .     S
C266  C264   1.37976       .     S
C266  H267   0.92864       .     S
H267  C266   0.92864       .     S
C266  C268   1.38272       .     S
C268  C266   1.38272       .     S
C268  C269   1.38112       .     S
C269  C268   1.38112       .     S
C269  H270   0.93089       .     S
H270  C269   0.93089       .     S
C269  C271   1.38354       .     S
C271  C269   1.38354       .     S
C271  H272   0.93025       .     S
H272  C271   0.93025       .     S
C273  H274   0.92974       .     S
H274  C273   0.92974       .     S
C273  C275   1.34500       .     S
C275  C273   1.34500       .     S
C275  H276   0.93034       .     S
H276  C275   0.93034       .     S
C277  H278   0.92947       .     S
H278  C277   0.92947       .     S
Ni279 N293   2.06393   1_545     S
N293  Ni279  2.06393   1_565     S
Ni279 O315   2.08663   1_545     S
O315  Ni279  2.08663   1_565     S
Ni279 N316   2.14469   1_545     S
N316  Ni279  2.14469   1_565     S
Ni279 N317   2.06393       .     S
N317  Ni279  2.06393       .     S
Ni280 O284   2.08663   1_455     S
O284  Ni280  2.08663   1_655     S
Ni280 N289   2.14469   1_455     S
N289  Ni280  2.14469   1_655     S
Ni280 O318   2.08663       .     S
O318  Ni280  2.08663       .     S
Ni280 N319   2.14469       .     S
N319  Ni280  2.14469       .     S
Ni280 N320   2.06393   1_455     S
N320  Ni280  2.06393   1_655     S
O281  C359   1.25029       .     S
C359  O281   1.25029       .     S
N282  C358   1.37484       .     S
C358  N282   1.37484       .     S
N282  C360   1.32089       .     S
C360  N282   1.32089       .     S
N283  C345   1.37614       .     S
C345  N283   1.37614       .     S
N283  C347   1.31119       .     S
C347  N283   1.31119       .     S
O284  C297   1.25029       .     S
C297  O284   1.25029       .     S
O285  C297   1.26920       .     S
C297  O285   1.26920       .     S
O286  H287   0.81920       .     S
H287  O286   0.81920       .     S
O286  C294   1.28882       .     S
C294  O286   1.28882       .     S
O288  C294   1.20951       .     S
C294  O288   1.20951       .     S
N289  C296   1.37484       .     S
C296  N289   1.37484       .     S
N289  C298   1.32089   1_655     S
C298  N289   1.32089   1_455     S
N290  H291   0.86091   1_655     S
H291  N290   0.86091   1_455     S
N290  C295   1.35964       .     S
C295  N290   1.35964       .     S
N290  C298   1.35012   1_655     S
C298  N290   1.35012   1_455     S
N292  C304   1.43167       .     S
C304  N292   1.43167       .     S
N292  C309   1.38018   1_565     S
C309  N292   1.38018   1_545     S
N292  C313   1.34898       .     S
C313  N292   1.34898       .     S
N293  C311   1.37614   1_565     S
C311  N293   1.37615   1_545     S
N293  C313   1.31119       .     S
C313  N293   1.31119       .     S
C294  C295   1.48287       .     S
C295  C294   1.48287       .     S
C295  C296   1.36913       .     S
C296  C295   1.36913       .     S
C296  C297   1.46788       .     S
C297  C296   1.46788       .     S
C298  C299   1.46510       .     S
C299  C298   1.46510       .     S
C299  C300   1.38310       .     S
C300  C299   1.38310       .     S
C299  C307   1.38997       .     S
C307  C299   1.38997       .     S
C300  H301   0.92935       .     S
H301  C300   0.92935       .     S
C300  C302   1.37976       .     S
C302  C300   1.37976       .     S
C302  H303   0.92864       .     S
H303  C302   0.92864       .     S
C302  C304   1.38272       .     S
C304  C302   1.38272       .     S
C304  C305   1.38112       .     S
C305  C304   1.38112       .     S
C305  H306   0.93089       .     S
H306  C305   0.93089       .     S
C305  C307   1.38354       .     S
C307  C305   1.38354       .     S
C307  H308   0.93025       .     S
H308  C307   0.93025       .     S
C309  H310   0.92974       .     S
H310  C309   0.92974       .     S
C309  C311   1.34500       .     S
C311  C309   1.34500       .     S
C311  H312   0.93034       .     S
H312  C311   0.93034       .     S
C313  H314   0.92947       .     S
H314  C313   0.92947       .     S
O315  C387   1.25029       .     S
C387  O315   1.25029       .     S
N316  C386   1.37484       .     S
C386  N316   1.37484       .     S
N316  C388   1.32089   1_565     S
C388  N316   1.32089   1_545     S
N317  C373   1.37615   1_545     S
C373  N317   1.37615   1_565     S
N317  C375   1.31119       .     S
C375  N317   1.31119       .     S
O318  C331   1.25029       .     S
C331  O318   1.25029       .     S
N319  C330   1.37484       .     S
C330  N319   1.37484       .     S
N319  C332   1.32089   1_455     S
C332  N319   1.32089   1_655     S
N320  C401   1.37615   1_655     S
C401  N320   1.37615   1_455     S
N320  C403   1.31119       .     S
C403  N320   1.31119       .     S
O321  C331   1.26920       .     S
C331  O321   1.26920       .     S
O322  H323   0.81920       .     S
H323  O322   0.81920       .     S
O322  C328   1.28882       .     S
C328  O322   1.28882       .     S
O324  C328   1.20951       .     S
C328  O324   1.20951       .     S
N325  H326   0.86091   1_455     S
H326  N325   0.86091   1_655     S
N325  C329   1.35964       .     S
C329  N325   1.35964       .     S
N325  C332   1.35012   1_455     S
C332  N325   1.35012   1_655     S
N327  C338   1.43167       .     S
C338  N327   1.43167       .     S
N327  C343   1.38018       .     S
C343  N327   1.38018       .     S
N327  C347   1.34898       .     S
C347  N327   1.34898       .     S
C328  C329   1.48287       .     S
C329  C328   1.48287       .     S
C329  C330   1.36913       .     S
C330  C329   1.36913       .     S
C330  C331   1.46788       .     S
C331  C330   1.46788       .     S
C332  C333   1.46510       .     S
C333  C332   1.46510       .     S
C333  C334   1.38310       .     S
C334  C333   1.38310       .     S
C333  C341   1.38997       .     S
C341  C333   1.38997       .     S
C334  H335   0.92935       .     S
H335  C334   0.92935       .     S
C334  C336   1.37976       .     S
C336  C334   1.37976       .     S
C336  H337   0.92864       .     S
H337  C336   0.92864       .     S
C336  C338   1.38272       .     S
C338  C336   1.38272       .     S
C338  C339   1.38112       .     S
C339  C338   1.38112       .     S
C339  H340   0.93089       .     S
H340  C339   0.93089       .     S
C339  C341   1.38354       .     S
C341  C339   1.38354       .     S
C341  H342   0.93025       .     S
H342  C341   0.93025       .     S
C343  H344   0.92974       .     S
H344  C343   0.92974       .     S
C343  C345   1.34500       .     S
C345  C343   1.34500       .     S
C345  H346   0.93034       .     S
H346  C345   0.93034       .     S
C347  H348   0.92947       .     S
H348  C347   0.92947       .     S
O349  C359   1.26920       .     S
C359  O349   1.26920       .     S
O350  H351   0.81920       .     S
H351  O350   0.81920       .     S
O350  C356   1.28882       .     S
C356  O350   1.28882       .     S
O352  C356   1.20951       .     S
C356  O352   1.20951       .     S
N353  H354   0.86091       .     S
H354  N353   0.86091       .     S
N353  C357   1.35964       .     S
C357  N353   1.35964       .     S
N353  C360   1.35012       .     S
C360  N353   1.35012       .     S
N355  C366   1.43167       .     S
C366  N355   1.43167       .     S
N355  C371   1.38018   1_545     S
C371  N355   1.38018   1_565     S
N355  C375   1.34898       .     S
C375  N355   1.34898       .     S
C356  C357   1.48287       .     S
C357  C356   1.48287       .     S
C357  C358   1.36913       .     S
C358  C357   1.36913       .     S
C358  C359   1.46788       .     S
C359  C358   1.46788       .     S
C360  C361   1.46511       .     S
C361  C360   1.46511       .     S
C361  C362   1.38310       .     S
C362  C361   1.38310       .     S
C361  C369   1.38997       .     S
C369  C361   1.38997       .     S
C362  H363   0.92935       .     S
H363  C362   0.92935       .     S
C362  C364   1.37976       .     S
C364  C362   1.37976       .     S
C364  H365   0.92864       .     S
H365  C364   0.92864       .     S
C364  C366   1.38272       .     S
C366  C364   1.38272       .     S
C366  C367   1.38112       .     S
C367  C366   1.38112       .     S
C367  H368   0.93089       .     S
H368  C367   0.93089       .     S
C367  C369   1.38354       .     S
C369  C367   1.38354       .     S
C369  H370   0.93025       .     S
H370  C369   0.93025       .     S
C371  H372   0.92974       .     S
H372  C371   0.92974       .     S
C371  C373   1.34500       .     S
C373  C371   1.34500       .     S
C373  H374   0.93034       .     S
H374  C373   0.93034       .     S
C375  H376   0.92947       .     S
H376  C375   0.92947       .     S
O377  C387   1.26920       .     S
C387  O377   1.26920       .     S
O378  H379   0.81920       .     S
H379  O378   0.81920       .     S
O378  C384   1.28882       .     S
C384  O378   1.28882       .     S
O380  C384   1.20951       .     S
C384  O380   1.20951       .     S
N381  H382   0.86091   1_565     S
H382  N381   0.86091   1_545     S
N381  C385   1.35964       .     S
C385  N381   1.35964       .     S
N381  C388   1.35012   1_565     S
C388  N381   1.35012   1_545     S
N383  C394   1.43167       .     S
C394  N383   1.43167       .     S
N383  C399   1.38018   1_655     S
C399  N383   1.38018   1_455     S
N383  C403   1.34898       .     S
C403  N383   1.34898       .     S
C384  C385   1.48287       .     S
C385  C384   1.48287       .     S
C385  C386   1.36913       .     S
C386  C385   1.36913       .     S
C386  C387   1.46788       .     S
C387  C386   1.46788       .     S
C388  C389   1.46510       .     S
C389  C388   1.46510       .     S
C389  C390   1.38310       .     S
C390  C389   1.38310       .     S
C389  C397   1.38997       .     S
C397  C389   1.38997       .     S
C390  H391   0.92935       .     S
H391  C390   0.92935       .     S
C390  C392   1.37976       .     S
C392  C390   1.37976       .     S
C392  H393   0.92864       .     S
H393  C392   0.92864       .     S
C392  C394   1.38273       .     S
C394  C392   1.38273       .     S
C394  C395   1.38112       .     S
C395  C394   1.38112       .     S
C395  H396   0.93089       .     S
H396  C395   0.93089       .     S
C395  C397   1.38354       .     S
C397  C395   1.38354       .     S
C397  H398   0.93025       .     S
H398  C397   0.93025       .     S
C399  H400   0.92974       .     S
H400  C399   0.92974       .     S
C399  C401   1.34500       .     S
C401  C399   1.34500       .     S
C401  H402   0.93034       .     S
H402  C401   0.93034       .     S
C403  H404   0.92947       .     S
H404  C403   0.92947       .     S
H405  O406   0.85071       .     S
O406  H405   0.85071       .     S
O406  H407   0.84977   1_545     S
H407  O406   0.84977   1_565     S
O408  H409   0.85071       .     S
H409  O408   0.85071       .     S
O408  H410   0.84977       .     S
H410  O408   0.84977       .     S
O411  H412   0.85071       .     S
H412  O411   0.85071       .     S
O411  H413   0.84977       .     S
H413  O411   0.84977       .     S
O2    H4     1.65926       .     S
H4    O2     1.65926       .     S
O213  H8     2.23568       .     S
H8    O213   2.23568       .     S
O252  H8     2.28420       .     S
H8    O252   2.28420       .     S
O33   H35    1.65926       .     S
H35   O33    1.65926       .     S
O288  H39    2.28420       .     S
H39   O288   2.28420       .     S
O411  H39    2.23568       .     S
H39   O411   2.23568       .     S
O69   H71    1.65926       .     S
H71   O69    1.65926       .     S
O199  H75    2.23568       .     S
H75   O199   2.23568       .     S
O221  H75    2.28420       .     S
H75   O221   2.28420       .     S
O105  H107   1.65926       .     S
H107  O105   1.65926       .     S
O207  H110   2.23568       .     S
H110  O207   2.23568       .     S
O352  H110   2.28420   1_556     S
H110  O352   2.28420   1_554     S
O133  H135   1.65926       .     S
H135  O133   1.65926       .     S
O204  H138   2.23568       .     S
H138  O204   2.23568       .     S
O380  H138   2.28420   1_556     S
H138  O380   2.28420   1_554     S
O161  H163   1.65926       .     S
H163  O161   1.65926       .     S
O189  H166   2.23568       .     S
H166  O189   2.23568       .     S
O324  H166   2.28420   1_556     S
H166  O324   2.28420   1_554     S
O204  H190   2.03302   1_655     S
H190  O204   2.03302   1_455     S
O207  H190   2.54815   1_545     S
H190  O207   2.54814   1_565     S
O164  H191   2.49097       .     S
H191  O164   2.49097       .     S
O207  H191   2.49250       .     S
H191  O207   2.49250       .     S
O201  H192   2.03302   1_455     S
H192  O201   2.03302   1_655     S
O408  H192   2.54814   1_445     S
H192  O408   2.54814   1_665     S
O221  H194   2.49096       .     S
H194  O221   2.49096       .     S
O408  H194   2.49250   1_455     S
H194  O408   2.49250   1_655     S
O210  H196   2.03302   1_665     S
H196  O210   2.03302   1_445     S
O406  H196   2.54815   1_655     S
H196  O406   2.54815   1_455     S
O352  H197   2.49097       .     S
H197  O352   2.49097       .     S
O406  H197   2.49250   1_655     S
H197  O406   2.49250   1_455     S
O213  H198   2.54814   1_455     S
H198  O213   2.54814   1_655     S
O411  H198   2.03302   1_565     S
H198  O411   2.03302   1_545     S
O72   H200   2.49097       .     S
H200  O72    2.49097       .     S
O213  H200   2.49250       .     S
H200  O213   2.49250       .     S
O193  H202   2.54815   1_655     S
H202  O193   2.54815   1_455     S
O408  H202   2.03302   1_545     S
H202  O408   2.03302   1_565     S
O193  H203   2.49250       .     S
H203  O193   2.49250       .     S
O288  H203   2.49096       .     S
H203  O288   2.49096       .     S
O189  H205   2.54815   1_455     S
H205  O189   2.54815   1_655     S
O207  H205   2.03302   1_445     S
H205  O207   2.03302   1_665     S
O136  H206   2.49097       .     S
H206  O136   2.49097       .     S
O189  H206   2.49250   1_455     S
H206  O189   2.49250   1_655     S
O189  H208   2.03302   1_565     S
H208  O189   2.03302   1_545     S
O204  H208   2.54814   1_665     S
H208  O204   2.54814   1_445     S
O108  H209   2.49097       .     S
H209  O108   2.49097       .     S
O204  H209   2.49250   1_565     S
H209  O204   2.49250   1_545     S
O195  H211   2.54814   1_445     S
H211  O195   2.54814   1_665     S
O406  H211   2.03302   1_545     S
H211  O406   2.03302   1_565     S
O195  H212   2.49250   1_545     S
H212  O195   2.49250   1_565     S
O324  H212   2.49097       .     S
H212  O324   2.49097       .     S
O199  H214   2.03302   1_655     S
H214  O199   2.03302   1_455     S
O411  H214   2.54815   1_665     S
H214  O411   2.54815   1_445     S
O5    H215   2.49097       .     S
H215  O5     2.49097       .     S
O411  H215   2.49250   1_655     S
H215  O411   2.49250   1_455     S
O218  H220   1.65926       .     S
H220  O218   1.65926       .     S
O36   H224   2.28420       .     S
H224  O36    2.28420       .     S
O193  H224   2.23568       .     S
H224  O193   2.23568       .     S
O249  H251   1.65926       .     S
H251  O249   1.65926       .     S
O72   H255   2.28420       .     S
H255  O72    2.28420       .     S
O408  H255   2.23568       .     S
H255  O408   2.23568       .     S
O285  H287   1.65926       .     S
H287  O285   1.65926       .     S
O5    H291   2.28420       .     S
H291  O5     2.28420       .     S
O201  H291   2.23568       .     S
H291  O201   2.23568       .     S
O321  H323   1.65926       .     S
H323  O321   1.65926       .     S
O136  H326   2.28420   1_554     S
H326  O136   2.28420   1_556     S
O210  H326   2.23568       .     S
H326  O210   2.23568       .     S
O349  H351   1.65926       .     S
H351  O349   1.65926       .     S
O164  H354   2.28420   1_554     S
H354  O164   2.28420   1_556     S
O195  H354   2.23568       .     S
H354  O195   2.23568       .     S
O377  H379   1.65926       .     S
H379  O377   1.65926       .     S
O108  H382   2.28420   1_554     S
H382  O108   2.28420   1_556     S
O406  H382   2.23568       .     S
H382  O406   2.23568       .     S
O195  H405   2.03302   1_455     S
H405  O195   2.03302   1_655     S
O210  H405   2.54815   1_565     S
H405  O210   2.54815   1_545     S
O210  H407   2.49250       .     S
H407  O210   2.49250       .     S
O380  H407   2.49097       .     S
H407  O380   2.49097       .     S
O193  H409   2.03302   1_665     S
H409  O193   2.03302   1_445     S
O201  H409   2.54814   1_565     S
H409  O201   2.54814   1_545     S
O201  H410   2.49250   1_565     S
H410  O201   2.49250   1_545     S
O252  H410   2.49097       .     S
H410  O252   2.49097       .     S
O199  H412   2.54814   1_545     S
H412  O199   2.54814   1_565     S
O213  H412   2.03302   1_445     S
H412  O213   2.03302   1_665     S
O36   H413   2.49097       .     S
H413  O36    2.49097       .     S
O199  H413   2.49250   1_545     S
H413  O199   2.49250   1_565     S
N10   Ni0    2.06393       .     S
Ni0   N10    2.06393       .     S
O32   Ni0    2.08664       .     S
Ni0   O32    2.08664       .     S
N37   Ni0    2.14469       .     S
Ni0   N37    2.14469       .     S
O65   Ni0    2.08663       .     S
Ni0   O65    2.08663       .     S
N66   Ni0    2.14469       .     S
Ni0   N66    2.14469       .     S
N67   Ni0    2.06393       .     S
Ni0   N67    2.06393       .     S
C14   O1     1.25029       .     S
O1    C14    1.25029       .     S
Ni63  O1     2.08663   1_545     S
O1    Ni63   2.08663   1_565     S
C14   O2     1.26920       .     S
O2    C14    1.26920       .     S
H4    O3     0.81920       .     S
O3    H4     0.81920       .     S
C11   O3     1.28882       .     S
O3    C11    1.28882       .     S
C11   O5     1.20951       .     S
O5    C11    1.20951       .     S
C13   N6     1.37484       .     S
N6    C13    1.37484       .     S
C15   N6     1.32089   1_545     S
N6    C15    1.32089   1_565     S
Ni63  N6     2.14469   1_545     S
N6    Ni63   2.14469   1_565     S
H8    N7     0.86091   1_545     S
N7    H8     0.86091   1_565     S
C12   N7     1.35964       .     S
N7    C12    1.35964       .     S
C15   N7     1.35012   1_545     S
N7    C15    1.35012   1_565     S
C21   N9     1.43167       .     S
N9    C21    1.43167       .     S
C26   N9     1.38018       .     S
N9    C26    1.38018       .     S
C30   N9     1.34898       .     S
N9    C30    1.34898       .     S
C28   N10    1.37615       .     S
N10   C28    1.37615       .     S
C30   N10    1.31119       .     S
N10   C30    1.31119       .     S
C12   C11    1.48287       .     S
C11   C12    1.48287       .     S
C13   C12    1.36913       .     S
C12   C13    1.36913       .     S
C14   C13    1.46788       .     S
C13   C14    1.46788       .     S
C16   C15    1.46510       .     S
C15   C16    1.46510       .     S
C17   C16    1.38310       .     S
C16   C17    1.38310       .     S
C24   C16    1.38997       .     S
C16   C24    1.38997       .     S
H18   C17    0.92935       .     S
C17   H18    0.92935       .     S
C19   C17    1.37976       .     S
C17   C19    1.37976       .     S
H20   C19    0.92864       .     S
C19   H20    0.92864       .     S
C21   C19    1.38272       .     S
C19   C21    1.38272       .     S
C22   C21    1.38113       .     S
C21   C22    1.38113       .     S
H23   C22    0.93089       .     S
C22   H23    0.93089       .     S
C24   C22    1.38354       .     S
C22   C24    1.38354       .     S
H25   C24    0.93025       .     S
C24   H25    0.93025       .     S
H27   C26    0.92974       .     S
C26   H27    0.92974       .     S
C28   C26    1.34500       .     S
C26   C28    1.34500       .     S
H29   C28    0.93034       .     S
C28   H29    0.93034       .     S
H31   C30    0.92947       .     S
C30   H31    0.92947       .     S
C45   O32    1.25029       .     S
O32   C45    1.25029       .     S
C45   O33    1.26920       .     S
O33   C45    1.26920       .     S
H35   O34    0.81920       .     S
O34   H35    0.81920       .     S
C42   O34    1.28882       .     S
O34   C42    1.28882       .     S
C42   O36    1.20951       .     S
O36   C42    1.20951       .     S
C44   N37    1.37484       .     S
N37   C44    1.37484       .     S
C46   N37    1.32089       .     S
N37   C46    1.32089       .     S
H39   N38    0.86091       .     S
N38   H39    0.86091       .     S
C43   N38    1.35964       .     S
N38   C43    1.35964       .     S
C46   N38    1.35012       .     S
N38   C46    1.35012       .     S
C52   N40    1.43167       .     S
N40   C52    1.43167       .     S
C57   N40    1.38018   1_455     S
N40   C57    1.38018   1_655     S
C61   N40    1.34898       .     S
N40   C61    1.34898       .     S
C59   N41    1.37615   1_455     S
N41   C59    1.37615   1_655     S
C61   N41    1.31119       .     S
N41   C61    1.31119       .     S
Ni64  N41    2.06393   1_455     S
N41   Ni64   2.06393   1_655     S
C43   C42    1.48287       .     S
C42   C43    1.48287       .     S
C44   C43    1.36913       .     S
C43   C44    1.36913       .     S
C45   C44    1.46788       .     S
C44   C45    1.46788       .     S
C47   C46    1.46511       .     S
C46   C47    1.46511       .     S
C48   C47    1.38310       .     S
C47   C48    1.38310       .     S
C55   C47    1.38997       .     S
C47   C55    1.38997       .     S
H49   C48    0.92935       .     S
C48   H49    0.92935       .     S
C50   C48    1.37976       .     S
C48   C50    1.37976       .     S
H51   C50    0.92864       .     S
C50   H51    0.92864       .     S
C52   C50    1.38272       .     S
C50   C52    1.38272       .     S
C53   C52    1.38112       .     S
C52   C53    1.38112       .     S
H54   C53    0.93089       .     S
C53   H54    0.93089       .     S
C55   C53    1.38354       .     S
C53   C55    1.38354       .     S
H56   C55    0.93025       .     S
C55   H56    0.93025       .     S
H58   C57    0.92974       .     S
C57   H58    0.92974       .     S
C59   C57    1.34500       .     S
C57   C59    1.34500       .     S
H60   C59    0.93034       .     S
C59   H60    0.93034       .     S
H62   C61    0.92947       .     S
C61   H62    0.92947       .     S
N77   Ni63   2.06393       .     S
Ni63  N77    2.06393       .     S
O99   Ni63   2.08663       .     S
Ni63  O99    2.08663       .     S
N100  Ni63   2.14469       .     S
Ni63  N100   2.14469       .     S
N101  Ni63   2.06393   1_565     S
Ni63  N101   2.06393   1_545     S
O68   Ni64   2.08663       .     S
Ni64  O68    2.08663       .     S
N73   Ni64   2.14469       .     S
Ni64  N73    2.14469       .     S
O102  Ni64   2.08663   1_655     S
Ni64  O102   2.08663   1_455     S
N103  Ni64   2.14469   1_655     S
Ni64  N103   2.14469   1_455     S
N104  Ni64   2.06393       .     S
Ni64  N104   2.06393       .     S
C143  O65    1.25029       .     S
O65   C143   1.25029       .     S
C142  N66    1.37485       .     S
N66   C142   1.37485       .     S
C144  N66    1.32089       .     S
N66   C144   1.32089       .     S
C129  N67    1.37614       .     S
N67   C129   1.37614       .     S
C131  N67    1.31119       .     S
N67   C131   1.31119       .     S
C81   O68    1.25029       .     S
O68   C81    1.25029       .     S
C81   O69    1.26920       .     S
O69   C81    1.26920       .     S
H71   O70    0.81920       .     S
O70   H71    0.81920       .     S
C78   O70    1.28882       .     S
O70   C78    1.28882       .     S
C78   O72    1.20951       .     S
O72   C78    1.20951       .     S
C80   N73    1.37484       .     S
N73   C80    1.37484       .     S
C82   N73    1.32089   1_655     S
N73   C82    1.32089   1_455     S
H75   N74    0.86091   1_655     S
N74   H75    0.86091   1_455     S
C79   N74    1.35964       .     S
N74   C79    1.35964       .     S
C82   N74    1.35012   1_655     S
N74   C82    1.35012   1_455     S
C88   N76    1.43167       .     S
N76   C88    1.43167       .     S
C93   N76    1.38018   1_565     S
N76   C93    1.38018   1_545     S
C97   N76    1.34898       .     S
N76   C97    1.34898       .     S
C95   N77    1.37614   1_565     S
N77   C95    1.37614   1_545     S
C97   N77    1.31119       .     S
N77   C97    1.31119       .     S
C79   C78    1.48287       .     S
C78   C79    1.48287       .     S
C80   C79    1.36913       .     S
C79   C80    1.36913       .     S
C81   C80    1.46788       .     S
C80   C81    1.46788       .     S
C83   C82    1.46511       .     S
C82   C83    1.46511       .     S
C84   C83    1.38310       .     S
C83   C84    1.38310       .     S
C91   C83    1.38997       .     S
C83   C91    1.38997       .     S
H85   C84    0.92935       .     S
C84   H85    0.92935       .     S
C86   C84    1.37975       .     S
C84   C86    1.37975       .     S
H87   C86    0.92864       .     S
C86   H87    0.92864       .     S
C88   C86    1.38272       .     S
C86   C88    1.38272       .     S
C89   C88    1.38112       .     S
C88   C89    1.38112       .     S
H90   C89    0.93089       .     S
C89   H90    0.93089       .     S
C91   C89    1.38354       .     S
C89   C91    1.38354       .     S
H92   C91    0.93025       .     S
C91   H92    0.93025       .     S
H94   C93    0.92974       .     S
C93   H94    0.92974       .     S
C95   C93    1.34500       .     S
C93   C95    1.34500       .     S
H96   C95    0.93034       .     S
C95   H96    0.93034       .     S
H98   C97    0.92947       .     S
C97   H98    0.92947       .     S
C171  O99    1.25029       .     S
O99   C171   1.25029       .     S
C170  N100   1.37484       .     S
N100  C170   1.37484       .     S
C172  N100   1.32089   1_565     S
N100  C172   1.32089   1_545     S
C157  N101   1.37614   1_545     S
N101  C157   1.37614   1_565     S
C159  N101   1.31119       .     S
N101  C159   1.31119       .     S
C115  O102   1.25029       .     S
O102  C115   1.25029       .     S
C114  N103   1.37484       .     S
N103  C114   1.37484       .     S
C116  N103   1.32089   1_455     S
N103  C116   1.32089   1_655     S
C185  N104   1.37614   1_655     S
N104  C185   1.37614   1_455     S
C187  N104   1.31119       .     S
N104  C187   1.31119       .     S
C115  O105   1.26920       .     S
O105  C115   1.26920       .     S
H107  O106   0.81920       .     S
O106  H107   0.81920       .     S
C112  O106   1.28882       .     S
O106  C112   1.28882       .     S
C112  O108   1.20951       .     S
O108  C112   1.20951       .     S
H110  N109   0.86091   1_455     S
N109  H110   0.86091   1_655     S
C113  N109   1.35964       .     S
N109  C113   1.35964       .     S
C116  N109   1.35012   1_455     S
N109  C116   1.35012   1_655     S
C122  N111   1.43167       .     S
N111  C122   1.43167       .     S
C127  N111   1.38018       .     S
N111  C127   1.38018       .     S
C131  N111   1.34898       .     S
N111  C131   1.34898       .     S
C113  C112   1.48287       .     S
C112  C113   1.48287       .     S
C114  C113   1.36913       .     S
C113  C114   1.36913       .     S
C115  C114   1.46788       .     S
C114  C115   1.46788       .     S
C117  C116   1.46510       .     S
C116  C117   1.46510       .     S
C118  C117   1.38310       .     S
C117  C118   1.38310       .     S
C125  C117   1.38998       .     S
C117  C125   1.38998       .     S
H119  C118   0.92935       .     S
C118  H119   0.92935       .     S
C120  C118   1.37976       .     S
C118  C120   1.37976       .     S
H121  C120   0.92864       .     S
C120  H121   0.92864       .     S
C122  C120   1.38272       .     S
C120  C122   1.38272       .     S
C123  C122   1.38112       .     S
C122  C123   1.38112       .     S
H124  C123   0.93089       .     S
C123  H124   0.93089       .     S
C125  C123   1.38354       .     S
C123  C125   1.38354       .     S
H126  C125   0.93025       .     S
C125  H126   0.93025       .     S
H128  C127   0.92974       .     S
C127  H128   0.92974       .     S
C129  C127   1.34500       .     S
C127  C129   1.34500       .     S
H130  C129   0.93034       .     S
C129  H130   0.93034       .     S
H132  C131   0.92947       .     S
C131  H132   0.92947       .     S
C143  O133   1.26920       .     S
O133  C143   1.26920       .     S
H135  O134   0.81920       .     S
O134  H135   0.81920       .     S
C140  O134   1.28882       .     S
O134  C140   1.28882       .     S
C140  O136   1.20951       .     S
O136  C140   1.20951       .     S
H138  N137   0.86091       .     S
N137  H138   0.86091       .     S
C141  N137   1.35964       .     S
N137  C141   1.35964       .     S
C144  N137   1.35012       .     S
N137  C144   1.35012       .     S
C150  N139   1.43167       .     S
N139  C150   1.43167       .     S
C155  N139   1.38018   1_545     S
N139  C155   1.38018   1_565     S
C159  N139   1.34898       .     S
N139  C159   1.34898       .     S
C141  C140   1.48287       .     S
C140  C141   1.48287       .     S
C142  C141   1.36913       .     S
C141  C142   1.36913       .     S
C143  C142   1.46788       .     S
C142  C143   1.46788       .     S
C145  C144   1.46511       .     S
C144  C145   1.46511       .     S
C146  C145   1.38310       .     S
C145  C146   1.38310       .     S
C153  C145   1.38997       .     S
C145  C153   1.38997       .     S
H147  C146   0.92935       .     S
C146  H147   0.92935       .     S
C148  C146   1.37975       .     S
C146  C148   1.37975       .     S
H149  C148   0.92864       .     S
C148  H149   0.92864       .     S
C150  C148   1.38272       .     S
C148  C150   1.38272       .     S
C151  C150   1.38112       .     S
C150  C151   1.38112       .     S
H152  C151   0.93089       .     S
C151  H152   0.93089       .     S
C153  C151   1.38354       .     S
C151  C153   1.38354       .     S
H154  C153   0.93025       .     S
C153  H154   0.93025       .     S
H156  C155   0.92974       .     S
C155  H156   0.92974       .     S
C157  C155   1.34500       .     S
C155  C157   1.34500       .     S
H158  C157   0.93034       .     S
C157  H158   0.93034       .     S
H160  C159   0.92947       .     S
C159  H160   0.92947       .     S
C171  O161   1.26920       .     S
O161  C171   1.26920       .     S
H163  O162   0.81920       .     S
O162  H163   0.81920       .     S
C168  O162   1.28882       .     S
O162  C168   1.28882       .     S
C168  O164   1.20951       .     S
O164  C168   1.20951       .     S
H166  N165   0.86091   1_565     S
N165  H166   0.86091   1_545     S
C169  N165   1.35964       .     S
N165  C169   1.35964       .     S
C172  N165   1.35012   1_565     S
N165  C172   1.35012   1_545     S
C178  N167   1.43167       .     S
N167  C178   1.43167       .     S
C183  N167   1.38018   1_655     S
N167  C183   1.38018   1_455     S
C187  N167   1.34898       .     S
N167  C187   1.34898       .     S
C169  C168   1.48287       .     S
C168  C169   1.48287       .     S
C170  C169   1.36913       .     S
C169  C170   1.36913       .     S
C171  C170   1.46788       .     S
C170  C171   1.46788       .     S
C173  C172   1.46511       .     S
C172  C173   1.46511       .     S
C174  C173   1.38310       .     S
C173  C174   1.38310       .     S
C181  C173   1.38997       .     S
C173  C181   1.38997       .     S
H175  C174   0.92935       .     S
C174  H175   0.92935       .     S
C176  C174   1.37975       .     S
C174  C176   1.37975       .     S
H177  C176   0.92864       .     S
C176  H177   0.92864       .     S
C178  C176   1.38272       .     S
C176  C178   1.38272       .     S
C179  C178   1.38112       .     S
C178  C179   1.38112       .     S
H180  C179   0.93089       .     S
C179  H180   0.93089       .     S
C181  C179   1.38354       .     S
C179  C181   1.38354       .     S
H182  C181   0.93025       .     S
C181  H182   0.93025       .     S
H184  C183   0.92974       .     S
C183  H184   0.92974       .     S
C185  C183   1.34500       .     S
C183  C185   1.34500       .     S
H186  C185   0.93034       .     S
C185  H186   0.93034       .     S
H188  C187   0.92947       .     S
C187  H188   0.92947       .     S
H190  O189   0.85071       .     S
O189  H190   0.85071       .     S
H191  O189   0.84977   1_545     S
O189  H191   0.84977   1_565     S
O193  H192   0.85071       .     S
H192  O193   0.85071       .     S
H194  O193   0.84977   1_545     S
O193  H194   0.84977   1_565     S
H196  O195   0.85071       .     S
O195  H196   0.85071       .     S
H197  O195   0.84977       .     S
O195  H197   0.84977       .     S
O199  H198   0.85071       .     S
H198  O199   0.85071       .     S
H200  O199   0.84977   1_455     S
O199  H200   0.84977   1_655     S
H202  O201   0.85071       .     S
O201  H202   0.85071       .     S
H203  O201   0.84977   1_655     S
O201  H203   0.84977   1_455     S
H205  O204   0.85071       .     S
O204  H205   0.85071       .     S
H206  O204   0.84977       .     S
O204  H206   0.84977       .     S
H208  O207   0.85071       .     S
O207  H208   0.85071       .     S
H209  O207   0.84977   1_655     S
O207  H209   0.84977   1_455     S
H211  O210   0.85071       .     S
O210  H211   0.85071       .     S
H212  O210   0.84977   1_455     S
O210  H212   0.84977   1_655     S
H214  O213   0.85071       .     S
O213  H214   0.85071       .     S
H215  O213   0.84977   1_565     S
O213  H215   0.84977   1_545     S
N226  Ni216  2.06393       .     S
Ni216 N226   2.06393       .     S
O248  Ni216  2.08663       .     S
Ni216 O248   2.08663       .     S
N253  Ni216  2.14469       .     S
Ni216 N253   2.14469       .     S
O281  Ni216  2.08663       .     S
Ni216 O281   2.08663       .     S
N282  Ni216  2.14469       .     S
Ni216 N282   2.14469       .     S
N283  Ni216  2.06393       .     S
Ni216 N283   2.06393       .     S
C230  O217   1.25029       .     S
O217  C230   1.25029       .     S
Ni279 O217   2.08663       .     S
O217  Ni279  2.08663       .     S
C230  O218   1.26920       .     S
O218  C230   1.26920       .     S
H220  O219   0.81920       .     S
O219  H220   0.81920       .     S
C227  O219   1.28882       .     S
O219  C227   1.28882       .     S
C227  O221   1.20951       .     S
O221  C227   1.20951       .     S
C229  N222   1.37484       .     S
N222  C229   1.37484       .     S
C231  N222   1.32089   1_565     S
N222  C231   1.32089   1_545     S
Ni279 N222   2.14469       .     S
N222  Ni279  2.14469       .     S
H224  N223   0.86091   1_565     S
N223  H224   0.86091   1_545     S
C228  N223   1.35964       .     S
N223  C228   1.35964       .     S
C231  N223   1.35012   1_565     S
N223  C231   1.35012   1_545     S
C237  N225   1.43167       .     S
N225  C237   1.43167       .     S
C242  N225   1.38018       .     S
N225  C242   1.38018       .     S
C246  N225   1.34898       .     S
N225  C246   1.34898       .     S
C244  N226   1.37615       .     S
N226  C244   1.37615       .     S
C246  N226   1.31119       .     S
N226  C246   1.31119       .     S
C228  C227   1.48287       .     S
C227  C228   1.48287       .     S
C229  C228   1.36913       .     S
C228  C229   1.36913       .     S
C230  C229   1.46788       .     S
C229  C230   1.46788       .     S
C232  C231   1.46511       .     S
C231  C232   1.46511       .     S
C233  C232   1.38310       .     S
C232  C233   1.38310       .     S
C240  C232   1.38997       .     S
C232  C240   1.38997       .     S
H234  C233   0.92935       .     S
C233  H234   0.92935       .     S
C235  C233   1.37975       .     S
C233  C235   1.37975       .     S
H236  C235   0.92864       .     S
C235  H236   0.92864       .     S
C237  C235   1.38272       .     S
C235  C237   1.38272       .     S
C238  C237   1.38112       .     S
C237  C238   1.38112       .     S
H239  C238   0.93089       .     S
C238  H239   0.93089       .     S
C240  C238   1.38354       .     S
C238  C240   1.38354       .     S
H241  C240   0.93025       .     S
C240  H241   0.93025       .     S
H243  C242   0.92974       .     S
C242  H243   0.92974       .     S
C244  C242   1.34500       .     S
C242  C244   1.34500       .     S
H245  C244   0.93034       .     S
C244  H245   0.93034       .     S
H247  C246   0.92947       .     S
C246  H247   0.92947       .     S
C261  O248   1.25029       .     S
O248  C261   1.25029       .     S
C261  O249   1.26920       .     S
O249  C261   1.26920       .     S
H251  O250   0.81920       .     S
O250  H251   0.81920       .     S
C258  O250   1.28882       .     S
O250  C258   1.28882       .     S
C258  O252   1.20951       .     S
O252  C258   1.20951       .     S
C260  N253   1.37484       .     S
N253  C260   1.37484       .     S
C262  N253   1.32089       .     S
N253  C262   1.32089       .     S
H255  N254   0.86091       .     S
N254  H255   0.86091       .     S
C259  N254   1.35964       .     S
N254  C259   1.35964       .     S
C262  N254   1.35012       .     S
N254  C262   1.35012       .     S
C268  N256   1.43167       .     S
N256  C268   1.43167       .     S
C273  N256   1.38018   1_655     S
N256  C273   1.38018   1_455     S
C277  N256   1.34898       .     S
N256  C277   1.34898       .     S
C275  N257   1.37614   1_655     S
N257  C275   1.37614   1_455     S
C277  N257   1.31119       .     S
N257  C277   1.31119       .     S
Ni280 N257   2.06393       .     S
N257  Ni280  2.06393       .     S
C259  C258   1.48287       .     S
C258  C259   1.48287       .     S
C260  C259   1.36913       .     S
C259  C260   1.36913       .     S
C261  C260   1.46788       .     S
C260  C261   1.46788       .     S
C263  C262   1.46510       .     S
C262  C263   1.46510       .     S
C264  C263   1.38310       .     S
C263  C264   1.38310       .     S
C271  C263   1.38998       .     S
C263  C271   1.38998       .     S
H265  C264   0.92935       .     S
C264  H265   0.92935       .     S
C266  C264   1.37976       .     S
C264  C266   1.37976       .     S
H267  C266   0.92864       .     S
C266  H267   0.92864       .     S
C268  C266   1.38272       .     S
C266  C268   1.38272       .     S
C269  C268   1.38112       .     S
C268  C269   1.38112       .     S
H270  C269   0.93089       .     S
C269  H270   0.93089       .     S
C271  C269   1.38354       .     S
C269  C271   1.38354       .     S
H272  C271   0.93025       .     S
C271  H272   0.93025       .     S
H274  C273   0.92974       .     S
C273  H274   0.92974       .     S
C275  C273   1.34500       .     S
C273  C275   1.34500       .     S
H276  C275   0.93034       .     S
C275  H276   0.93034       .     S
H278  C277   0.92947       .     S
C277  H278   0.92947       .     S
N293  Ni279  2.06393   1_565     S
Ni279 N293   2.06393   1_545     S
O315  Ni279  2.08663   1_565     S
Ni279 O315   2.08663   1_545     S
N316  Ni279  2.14469   1_565     S
Ni279 N316   2.14469   1_545     S
N317  Ni279  2.06393       .     S
Ni279 N317   2.06393       .     S
O284  Ni280  2.08663   1_655     S
Ni280 O284   2.08663   1_455     S
N289  Ni280  2.14469   1_655     S
Ni280 N289   2.14469   1_455     S
O318  Ni280  2.08663       .     S
Ni280 O318   2.08663       .     S
N319  Ni280  2.14469       .     S
Ni280 N319   2.14469       .     S
N320  Ni280  2.06393   1_655     S
Ni280 N320   2.06393   1_455     S
C359  O281   1.25029       .     S
O281  C359   1.25029       .     S
C358  N282   1.37484       .     S
N282  C358   1.37484       .     S
C360  N282   1.32089       .     S
N282  C360   1.32089       .     S
C345  N283   1.37614       .     S
N283  C345   1.37614       .     S
C347  N283   1.31119       .     S
N283  C347   1.31119       .     S
C297  O284   1.25029       .     S
O284  C297   1.25029       .     S
C297  O285   1.26920       .     S
O285  C297   1.26920       .     S
H287  O286   0.81920       .     S
O286  H287   0.81920       .     S
C294  O286   1.28882       .     S
O286  C294   1.28882       .     S
C294  O288   1.20951       .     S
O288  C294   1.20951       .     S
C296  N289   1.37484       .     S
N289  C296   1.37484       .     S
C298  N289   1.32089   1_455     S
N289  C298   1.32089   1_655     S
H291  N290   0.86091   1_455     S
N290  H291   0.86091   1_655     S
C295  N290   1.35964       .     S
N290  C295   1.35964       .     S
C298  N290   1.35012   1_455     S
N290  C298   1.35012   1_655     S
C304  N292   1.43167       .     S
N292  C304   1.43167       .     S
C309  N292   1.38018   1_545     S
N292  C309   1.38018   1_565     S
C313  N292   1.34898       .     S
N292  C313   1.34898       .     S
C311  N293   1.37615   1_545     S
N293  C311   1.37614   1_565     S
C313  N293   1.31119       .     S
N293  C313   1.31119       .     S
C295  C294   1.48287       .     S
C294  C295   1.48287       .     S
C296  C295   1.36913       .     S
C295  C296   1.36913       .     S
C297  C296   1.46788       .     S
C296  C297   1.46788       .     S
C299  C298   1.46510       .     S
C298  C299   1.46510       .     S
C300  C299   1.38310       .     S
C299  C300   1.38310       .     S
C307  C299   1.38997       .     S
C299  C307   1.38997       .     S
H301  C300   0.92935       .     S
C300  H301   0.92935       .     S
C302  C300   1.37976       .     S
C300  C302   1.37976       .     S
H303  C302   0.92864       .     S
C302  H303   0.92864       .     S
C304  C302   1.38272       .     S
C302  C304   1.38272       .     S
C305  C304   1.38112       .     S
C304  C305   1.38112       .     S
H306  C305   0.93089       .     S
C305  H306   0.93089       .     S
C307  C305   1.38354       .     S
C305  C307   1.38354       .     S
H308  C307   0.93025       .     S
C307  H308   0.93025       .     S
H310  C309   0.92974       .     S
C309  H310   0.92974       .     S
C311  C309   1.34500       .     S
C309  C311   1.34500       .     S
H312  C311   0.93034       .     S
C311  H312   0.93034       .     S
H314  C313   0.92947       .     S
C313  H314   0.92947       .     S
C387  O315   1.25029       .     S
O315  C387   1.25029       .     S
C386  N316   1.37484       .     S
N316  C386   1.37484       .     S
C388  N316   1.32089   1_545     S
N316  C388   1.32089   1_565     S
C373  N317   1.37615   1_565     S
N317  C373   1.37615   1_545     S
C375  N317   1.31119       .     S
N317  C375   1.31119       .     S
C331  O318   1.25029       .     S
O318  C331   1.25029       .     S
C330  N319   1.37484       .     S
N319  C330   1.37484       .     S
C332  N319   1.32089   1_655     S
N319  C332   1.32089   1_455     S
C401  N320   1.37615   1_455     S
N320  C401   1.37615   1_655     S
C403  N320   1.31119       .     S
N320  C403   1.31119       .     S
C331  O321   1.26920       .     S
O321  C331   1.26920       .     S
H323  O322   0.81920       .     S
O322  H323   0.81920       .     S
C328  O322   1.28882       .     S
O322  C328   1.28882       .     S
C328  O324   1.20951       .     S
O324  C328   1.20951       .     S
H326  N325   0.86091   1_655     S
N325  H326   0.86091   1_455     S
C329  N325   1.35964       .     S
N325  C329   1.35964       .     S
C332  N325   1.35012   1_655     S
N325  C332   1.35012   1_455     S
C338  N327   1.43167       .     S
N327  C338   1.43167       .     S
C343  N327   1.38018       .     S
N327  C343   1.38018       .     S
C347  N327   1.34898       .     S
N327  C347   1.34898       .     S
C329  C328   1.48287       .     S
C328  C329   1.48287       .     S
C330  C329   1.36913       .     S
C329  C330   1.36913       .     S
C331  C330   1.46788       .     S
C330  C331   1.46788       .     S
C333  C332   1.46510       .     S
C332  C333   1.46510       .     S
C334  C333   1.38310       .     S
C333  C334   1.38310       .     S
C341  C333   1.38997       .     S
C333  C341   1.38997       .     S
H335  C334   0.92935       .     S
C334  H335   0.92935       .     S
C336  C334   1.37976       .     S
C334  C336   1.37976       .     S
H337  C336   0.92864       .     S
C336  H337   0.92864       .     S
C338  C336   1.38272       .     S
C336  C338   1.38272       .     S
C339  C338   1.38112       .     S
C338  C339   1.38112       .     S
H340  C339   0.93089       .     S
C339  H340   0.93089       .     S
C341  C339   1.38354       .     S
C339  C341   1.38354       .     S
H342  C341   0.93025       .     S
C341  H342   0.93025       .     S
H344  C343   0.92974       .     S
C343  H344   0.92974       .     S
C345  C343   1.34500       .     S
C343  C345   1.34500       .     S
H346  C345   0.93034       .     S
C345  H346   0.93034       .     S
H348  C347   0.92947       .     S
C347  H348   0.92947       .     S
C359  O349   1.26920       .     S
O349  C359   1.26920       .     S
H351  O350   0.81920       .     S
O350  H351   0.81920       .     S
C356  O350   1.28882       .     S
O350  C356   1.28882       .     S
C356  O352   1.20951       .     S
O352  C356   1.20951       .     S
H354  N353   0.86091       .     S
N353  H354   0.86091       .     S
C357  N353   1.35964       .     S
N353  C357   1.35964       .     S
C360  N353   1.35012       .     S
N353  C360   1.35012       .     S
C366  N355   1.43167       .     S
N355  C366   1.43167       .     S
C371  N355   1.38018   1_565     S
N355  C371   1.38018   1_545     S
C375  N355   1.34898       .     S
N355  C375   1.34898       .     S
C357  C356   1.48287       .     S
C356  C357   1.48287       .     S
C358  C357   1.36913       .     S
C357  C358   1.36913       .     S
C359  C358   1.46788       .     S
C358  C359   1.46788       .     S
C361  C360   1.46511       .     S
C360  C361   1.46511       .     S
C362  C361   1.38310       .     S
C361  C362   1.38310       .     S
C369  C361   1.38997       .     S
C361  C369   1.38997       .     S
H363  C362   0.92935       .     S
C362  H363   0.92935       .     S
C364  C362   1.37976       .     S
C362  C364   1.37976       .     S
H365  C364   0.92864       .     S
C364  H365   0.92864       .     S
C366  C364   1.38272       .     S
C364  C366   1.38272       .     S
C367  C366   1.38112       .     S
C366  C367   1.38112       .     S
H368  C367   0.93089       .     S
C367  H368   0.93089       .     S
C369  C367   1.38354       .     S
C367  C369   1.38354       .     S
H370  C369   0.93025       .     S
C369  H370   0.93025       .     S
H372  C371   0.92974       .     S
C371  H372   0.92974       .     S
C373  C371   1.34500       .     S
C371  C373   1.34500       .     S
H374  C373   0.93034       .     S
C373  H374   0.93034       .     S
H376  C375   0.92947       .     S
C375  H376   0.92947       .     S
C387  O377   1.26920       .     S
O377  C387   1.26920       .     S
H379  O378   0.81920       .     S
O378  H379   0.81920       .     S
C384  O378   1.28882       .     S
O378  C384   1.28882       .     S
C384  O380   1.20951       .     S
O380  C384   1.20951       .     S
H382  N381   0.86091   1_545     S
N381  H382   0.86091   1_565     S
C385  N381   1.35964       .     S
N381  C385   1.35964       .     S
C388  N381   1.35012   1_545     S
N381  C388   1.35012   1_565     S
C394  N383   1.43167       .     S
N383  C394   1.43167       .     S
C399  N383   1.38018   1_455     S
N383  C399   1.38018   1_655     S
C403  N383   1.34898       .     S
N383  C403   1.34898       .     S
C385  C384   1.48287       .     S
C384  C385   1.48287       .     S
C386  C385   1.36913       .     S
C385  C386   1.36913       .     S
C387  C386   1.46788       .     S
C386  C387   1.46788       .     S
C389  C388   1.46510       .     S
C388  C389   1.46510       .     S
C390  C389   1.38310       .     S
C389  C390   1.38310       .     S
C397  C389   1.38997       .     S
C389  C397   1.38997       .     S
H391  C390   0.92935       .     S
C390  H391   0.92935       .     S
C392  C390   1.37976       .     S
C390  C392   1.37976       .     S
H393  C392   0.92864       .     S
C392  H393   0.92864       .     S
C394  C392   1.38273       .     S
C392  C394   1.38273       .     S
C395  C394   1.38112       .     S
C394  C395   1.38112       .     S
H396  C395   0.93089       .     S
C395  H396   0.93089       .     S
C397  C395   1.38354       .     S
C395  C397   1.38354       .     S
H398  C397   0.93025       .     S
C397  H398   0.93025       .     S
H400  C399   0.92974       .     S
C399  H400   0.92974       .     S
C401  C399   1.34500       .     S
C399  C401   1.34500       .     S
H402  C401   0.93034       .     S
C401  H402   0.93034       .     S
H404  C403   0.92947       .     S
C403  H404   0.92947       .     S
O406  H405   0.85071       .     S
H405  O406   0.85071       .     S
H407  O406   0.84977   1_565     S
O406  H407   0.84977   1_545     S
H409  O408   0.85071       .     S
O408  H409   0.85071       .     S
H410  O408   0.84977       .     S
O408  H410   0.84977       .     S
H412  O411   0.85071       .     S
O411  H412   0.85071       .     S
H413  O411   0.84977       .     S
O411  H413   0.84977       .     S
