data_I
_chemical_name_common  '/data/user2/wty/HOF/MOFDiff/mofdiff/data/test/2031dso42]tba4'
_cell_length_a 34.56680
_cell_length_b 23.41570
_cell_length_c 17.41210
_cell_angle_alpha 90.00000
_cell_angle_beta  90.00000
_cell_angle_gamma 90.00000
_space_group_name_H-M_alt      'P 1'


loop_
_space_group_symop_operation_xyz
  'x, y, z' 

loop_
_atom_site_label
_atom_site_fract_x
_atom_site_fract_y
_atom_site_fract_z
_atom_site_type_symbol
S0     0.23787  0.62272  0.34717     S
S1     0.33969  0.61011  0.78852     S
S2     0.51651  0.61959  0.60844     S
S3     0.42441  0.61216  0.21492     S
O4     0.19539  0.78594  0.35373     O
O5     0.55765  0.79644  0.64741     O
O6     0.63212  0.85082   0.5232     O
N7      0.5726  0.87302   0.4741     N
H8     0.56008  0.88599  0.43371     H
O9     0.12228  0.82789  0.48997     O
N10    0.27277  0.71476  0.41128     N
H11    0.27036  0.74231  0.44533     H
N12    0.20596  0.75104  0.47311     N
H13    0.20785  0.75816  0.52259     H
N14    0.18157  0.85419   0.5329     N
H15    0.19539  0.86546  0.57258     H
N16    0.21952  0.83584   0.7792     N
H17    0.22219  0.84266  0.72975     H
O18    0.29472  0.77425   0.8959     O
N19    0.49218    0.748   0.2187     N
H20    0.50456   0.7579  0.26084     H
N21    0.55115  0.76616    0.524     N
H22    0.55072  0.77588  0.47514     H
N23    0.21016  0.69587  0.44543     N
H24    0.19256  0.66995  0.45629     H
O25    0.58466   0.8189   0.1336     O
N26    0.16127  0.83362   0.6783     N
N27    0.54803  0.70926   0.5448     N
H28    0.56771  0.68625  0.53636     H
N29    0.34026  0.71565  0.72521     N
H30    0.32745  0.74778  0.71882     H
N31    0.54071   0.8428    0.224     N
H32    0.53609  0.85017  0.27267     H
N33    0.48466  0.72317    0.577     N
H34    0.48676  0.75426   0.5489     H
N35    0.26927  0.74107   0.7842     N
H36    0.25531  0.74866   0.7432     H
N37    0.59704  0.84819   0.3311     N
O38    0.46924   0.7754   0.1031     O
N39    0.28607   0.6888   0.7925     N
H40    0.27278  0.66174  0.81567     H
C41    0.41679  0.74012   0.5815     C
H42    0.41894   0.7577  0.53246     H
N43    0.42047   0.7193    0.274     N
H44    0.43197  0.75256  0.27993     H
N45    0.47608   0.6933   0.2118     N
H46    0.49042  0.66646  0.19076     H
O47    0.17889   0.8109   0.8759     O
C48    0.44949   0.7158   0.6158     C
C49    0.44564  0.69109   0.6873     C
H50    0.46773  0.67522  0.71173     H
C51    0.30902  0.71139   0.3742     C
C52    0.13303  0.82913   0.6259     C
C53     0.3829   0.7135   0.3066     C
C54    0.38112  0.73873   0.6187     C
H55     0.3592   0.7557  0.59495     H
C56    0.37679  0.73823   0.3788     C
H57     0.3976  0.75623  0.40494     H
C58    0.24132  0.68145   0.4015     C
C59    0.15186   0.8235   0.7509     C
C60    0.19881  0.85434   0.4575     C
H61    0.22653   0.8654  0.46448     H
C62    0.66287   0.8353   0.3723     C
H63    0.68116  0.83503  0.41306     H
C64    0.37721  0.71292   0.6898     C
C65    0.34048  0.73646    0.412     C
H66     0.3368  0.75262  0.46146     H
C67    0.55486  0.80691   0.5789     C
C68    0.19883   0.7942   0.4221     C
C69    0.55251  0.86787   0.5478     C
H70    0.52455  0.87577  0.53753     H
C71    0.62424  0.84841   0.3864     C
C72    0.31539   0.6874   0.3023     C
H73    0.29449  0.67058  0.27506     H
C74    0.61019  0.85804   0.4677     C
C75    0.09481   0.8161   0.6442     C
H76    0.07569   0.8126  0.60533     H
C77    0.41001    0.689   0.7241     C
H78    0.40792  0.67118  0.77299     H
C79    0.32256   0.6759   0.7667     C
C80    0.27412   0.7814   0.8393     C
C81    0.28058   0.8851   0.8047     C
H82      0.289  0.87812  0.75181     H
H83    0.30318  0.88562  0.83872     H
H84    0.26729  0.92203  0.80752     H
C85    0.51579  0.68811   0.5776     C
C86    0.67408   0.8228   0.2988     C
H87    0.70044  0.81528  0.28719     H
C88    0.60808   0.8352   0.2605     C
C89     0.3522    0.688   0.2698     C
H90    0.35621  0.67042  0.22131     H
C91    0.14506  0.83732   0.5439     C
C92    0.25303   0.8378   0.8298     C
H93    0.24321  0.84872  0.88181     H
C94    0.44021   0.6789    0.235     C
C95     0.4885   0.7851   0.1605     C
C96    0.50912   0.8426   0.1689     C
H97     0.5207  0.85161  0.11773     H
C98    0.57705   0.8316   0.2005     C
C99     0.1149   0.8118    0.776     C
H100   0.10954  0.80639  0.82899     H
C101   0.18474   0.8236   0.8082     C
C102   0.18128   0.8977   0.4031     C
H103   0.15404  0.88827  0.39409     H
H104   0.19534  0.89706  0.35428     H
H105   0.18311   0.9359  0.42591     H
C106   0.08553   0.8082    0.721     C
H107   0.05962  0.80054  0.73595     H
C108   0.48057   0.8899   0.1866     C
H109   0.46829  0.88256  0.23633     H
H110   0.46073  0.89114  0.14639     H
H111   0.49421  0.92655  0.18837     H
C112   0.56577   0.9116   0.6059     C
H113   0.59357  0.90709   0.6151     H
H114   0.55167  0.90606  0.65416     H
H115   0.56066  0.95008  0.58617     H
C116   0.64605   0.8214   0.2412     C
H117    0.6527  0.81127  0.19005     H
N118   0.38048   0.7086   0.9992     N
C119   0.34564   0.7918   0.0626     C
H120   0.32137  0.77333  0.04553     H
H121   0.35274  0.82118  0.02419     H
C122    0.3863   0.7424   0.9253     C
H123   0.36283  0.76562  0.91597     H
H124   0.38871  0.71508  0.88216     H
C125   0.37745   0.7477   0.0678     C
H126   0.40247  0.76765  0.07443     H
H127   0.37307  0.72409  0.11418     H
C128   0.33922   0.8202   0.1406     C
H129   0.33319  0.79046  0.17915     H
H130   0.31662  0.84609  0.13713     H
C131   0.42221   0.8171   0.8512     C
H132   0.44581  0.84101   0.8523     H
H133   0.42482  0.79049  0.80727     H
C134    0.3436   0.6739   0.9878     C
H135    0.3486  0.64527  0.94716     H
H136   0.32332  0.69997  0.96836     H
C137   0.37436   0.8544   0.1677     C
H138   0.38436  0.87736  0.12506     H
H139   0.39451  0.82806  0.18545     H
H140   0.36673   0.8796     0.21     H
C141    0.4151   0.6695    0.015     C
H142   0.43829  0.69361  0.02265     H
H143   0.41029  0.64884  0.06375     H
C144    0.3274   0.6425   0.0578     C
H145   0.32176  0.67027  0.09924     H
H146   0.34674  0.61494  0.07726     H
C147    0.2901   0.6106   0.0359     C
H148   0.27252   0.6379   0.0099     H
H149   0.29676  0.58056  0.99816     H
C150   0.42133   0.7819   0.9241     C
H151   0.42036  0.80772  0.96912     H
H152   0.44529  0.75891  0.92775     H
C153    0.4564    0.586   0.9759     C
H154   0.45972  0.58577  0.03239     H
H155   0.45005  0.54667  0.95916     H
C156     0.268   0.5828    0.102     C
H157   0.24759  0.55816  0.08132     H
H158   0.25637  0.61254   0.1342     H
H159   0.28588  0.55988  0.13295     H
C160    0.4931   0.6054    0.938     C
H161   0.51424  0.57952  0.95204     H
H162   0.48971  0.60521  0.88217     H
H163   0.49935  0.64419   0.9552     H
C164    0.3885   0.8553   0.8356     C
H165   0.36909   0.8345  0.80551     H
H166   0.39717  0.88884  0.80679     H
H167   0.37702  0.86753  0.88442     H
C168    0.4239   0.6264   0.9538     C
H169   0.43107  0.64674  0.90602     H
H170   0.40023  0.60389  0.94309     H
N171    0.3868   0.5551   0.5017     N
C172    0.3214   0.5667   0.5699     C
H173   0.31056  0.53588  0.53736     H
H174    0.3301  0.54959   0.6189     H
C175   0.41719   0.5508   0.6344     C
H176   0.39553  0.57077  0.66009     H
H177   0.43619  0.57985   0.6176     H
C178    0.4022    0.519   0.5655     C
H179   0.42339  0.49506  0.54489     H
H180   0.38136  0.49294  0.58274     H
C181     0.372   0.5132   0.4418     C
H182   0.35339  0.48707  0.46694     H
H183   0.39413  0.48978    0.424     H
C184      0.45   0.5379    0.764     C
H185   0.46893  0.56764  0.75138     H
H186   0.46209  0.50941  0.79754     H
H187   0.42786  0.55512  0.79032     H
C188    0.3524   0.5393   0.3715     C
H189   0.37056  0.56535  0.34483     H
H190   0.32946  0.56162  0.38749     H
C191    0.3401   0.4907   0.3172     C
H192   0.36353  0.46885   0.3025     H
H193   0.32296  0.46441  0.34585     H
C194    0.2593   0.5868   0.6359     C
H195   0.23996   0.6167  0.64466     H
H196     0.247  0.55411  0.61051     H
H197   0.27018  0.57459  0.68516     H
C198    0.3558   0.5951   0.5287     C
H199   0.34587  0.61637  0.48375     H
H200   0.36766  0.62317  0.56408     H
C201     0.417   0.5947   0.4676     C
H202   0.40465  0.61749  0.42658     H
H203   0.42552  0.62157  0.50813     H
C204    0.4365   0.5096   0.6915     C
H205   0.41793  0.47903  0.70489     H
H206   0.45901  0.49135  0.66609     H
C207    0.2915   0.6101   0.5849     C
H208   0.28036  0.62303  0.53548     H
H209   0.30355  0.64351  0.61018     H
C210    0.3215   0.5073   0.2515     C
H211   0.34024   0.5239  0.21563     H
H212   0.30176  0.53585  0.26414     H
H213   0.30913  0.47408  0.22762     H
C214    0.4778   0.6149   0.4063     C
H215   0.46427  0.63732  0.36628     H
H216   0.48446  0.64098  0.44896     H
C217    0.4507   0.5675   0.4361     C
H218   0.44328  0.54165  0.39357     H
H219   0.46398  0.54463   0.4761     H
C220    0.5144   0.5899   0.3731     C
H221   0.53107   0.6208  0.35452     H
H222   0.52801  0.56816  0.41282     H
H223   0.50785   0.5645  0.33024     H
S224   0.27202  0.80595  0.60572     S
O225   0.30706  0.80787  0.65319     O
O226   0.24938  0.75364  0.62438     O
O227   0.24799  0.85661  0.62289     O
O228   0.28241  0.80573  0.52354     O
N229   0.13497   0.7083   0.1838     N
C230   0.17005   0.7223   0.1351     C
H231   0.17612  0.68866  0.10276     H
H232   0.16326  0.75412  0.10017     H
C233   0.20597   0.7386   0.1793     C
H234   0.21337  0.70708  0.21417     H
H235   0.20068   0.7729  0.21081     H
C236   0.23912    0.751   0.1237     C
H237    0.2632  0.75605  0.15366     H
H238   0.24274  0.71733  0.08998     H
C239   0.23319   0.8035   0.0734     C
H240    0.2535  0.80504  0.03417     H
H241   0.23442  0.83796  0.10525     H
H242   0.20783  0.80133  0.04838     H
C243    0.1235    0.758   0.2339     C
H244   0.14311  0.76261  0.27477     H
H245   0.09854  0.74889  0.25903     H
C246    0.1404   0.6623   0.2377     C
H247   0.16025  0.67356  0.27585     H
H248   0.11589  0.65554  0.26567     H
C249   0.10269   0.6975   0.1265     C
H250   0.11237  0.67127  0.08618     H
H251   0.09587  0.73403   0.1013     H
C252    0.1443   0.5553   0.2526     C
H253   0.15834  0.55964  0.30182     H
H254   0.11634  0.55375  0.26482     H
C255     0.152   0.6114   0.2021     C
H256   0.17996  0.61376  0.19038     H
H257     0.138  0.60756  0.15275     H
C258    0.0656   0.6714   0.1624     C
H259   0.06095  0.68807  0.21383     H
H260   0.06851  0.62959  0.16799     H
C261    0.0311   0.6854   0.1078     C
H262   0.00633  0.68152    0.136     H
H263   0.03322  0.72515  0.08906     H
C264    0.1549   0.5031   0.2203     C
H265   0.17188  0.50978  0.17616     H
H266   0.13163  0.48271  0.20335     H
H267   0.16856  0.48008  0.25867     H
C268    0.1192   0.8155   0.1909     C
H269   0.14529  0.83212  0.18358     H
H270   0.10835  0.80781  0.13926     H
C271    0.0577   0.8588   0.2032     C
H272   0.04586  0.82079  0.20411     H
H273   0.05638  0.87434  0.15095     H
H274    0.0437  0.88413  0.23836     H
C275    0.0966   0.8548   0.2262     C
H276   0.10866  0.89275  0.21878     H
H277   0.09698  0.84667  0.28199     H
C278    0.0317   0.6466   0.0442     C
H279   0.01008  0.65515  0.00967     H
H280   0.05617  0.65086  0.01627     H
H281   0.02936  0.60736  0.06308     H
S282   0.48379  0.82095  0.39201     S
O283   0.47179  0.81807  0.47327     O
O284   0.50993  0.77203  0.37449     O
O285   0.44935  0.81848  0.34181     O
O286     0.505  0.87476  0.37733     O
N287   0.37159  0.93271   0.4752     N
C288   0.29757   0.8671   0.3311     C
H289   0.31601  0.84025  0.30694     H
H290   0.28281  0.84583  0.37055     H
C291   0.42007   0.9288   0.5853     C
H292   0.40366  0.95466  0.61624     H
H293   0.43902  0.95231  0.55671     H
C294    0.3203   0.9155   0.3702     C
H295   0.33408  0.93841  0.33104     H
H296   0.30227  0.94103  0.39806     H
C297   0.34877   0.8902   0.4253     C
H298   0.36753  0.86716  0.39559     H
H299   0.33469  0.86385   0.4598     H
C300   0.34417   0.9716    0.522     C
H301   0.36003  0.99974   0.5505     H
H302   0.32769  0.99318  0.48563     H
C303    0.3182   0.9412   0.5786     C
H304   0.33413  0.92728    0.622     H
H305   0.30669  0.90744  0.55308     H
C306   0.39518    0.896   0.5294     C
H307   0.37731  0.87131  0.55885     H
H308   0.41208  0.87076  0.49844     H
C309   0.26997   0.8891   0.2709     C
H310    0.2577   0.8567  0.24478     H
H311   0.28421  0.91207  0.23334     H
H312   0.25005  0.91263  0.29538     H
C313    0.4359   0.9989   0.3135     C
H314   0.43809   0.0352  0.34239     H
H315   0.46261  0.98828  0.29857     H
C316    0.4416    0.887   0.6388     C
H317   0.42268  0.86256  0.66595     H
H318   0.45864  0.86188  0.60783     H
C319    0.2542   0.9904   0.5522     C
H320   0.26574  0.00581  0.50509     H
H321    0.2361  0.01837  0.57365     H
H322   0.24039  0.95498  0.54036     H
C323    0.4659   0.9197   0.6972     C
H324   0.48323  0.94609  0.67028     H
H325   0.48127   0.8927  0.72754     H
H326    0.4488  0.94133   0.7314     H
C327   0.28584   0.9783   0.6101     C
H328   0.27429  0.95907  0.65523     H
H329   0.29693  0.01499  0.62772     H
C330    0.3956   0.9737   0.4275     C
H331   0.37769  0.99805  0.39757     H
H332   0.40988  0.99912  0.46313     H
C333     0.422   0.9501   0.3773     C
H334   0.41001   0.9173  0.35029     H
H335   0.44471  0.93592  0.40608     H
C336    0.4159   0.0131   0.2418     C
H337   0.42215  0.98449  0.20265     H
H338   0.42417  0.05088  0.22414     H
H339   0.38788  0.01334  0.25076     H
loop_
_geom_bond_atom_site_label_1
_geom_bond_atom_site_label_2
_geom_bond_distance
_geom_bond_site_symmetry_2
_ccdc_geom_bond_type
H8    O286   2.15821       .     S
O286  H8     2.15821       .     S
H8    N37    2.36808       .     S
N37   H8     2.36808       .     S
H11   O228   2.05750       .     S
O228  H11    2.05750       .     S
H11   N12    2.28720       .     S
N12   H11    2.28720       .     S
H13   O226   2.28328       .     S
O226  H13    2.28328       .     S
H13   N14    2.43181       .     S
N14   H13    2.43181       .     S
H15   O227   2.02885       .     S
O227  H15    2.02885       .     S
H15   N26    2.30986       .     S
N26   H15    2.30986       .     S
H17   O227   2.08904       .     S
O227  H17    2.08904       .     S
H17   N26    2.29821       .     S
N26   H17    2.29821       .     S
H20   O284   2.01492       .     S
O284  H20    2.01492       .     S
H20   N31    2.43414       .     S
N31   H20    2.43414       .     S
H22   O284   2.25112       .     S
O284  H22    2.25112       .     S
H22   N7     2.39712       .     S
N7    H22    2.39712       .     S
H30   O225   1.94485       .     S
O225  H30    1.94485       .     S
H30   N35    2.31628       .     S
N35   H30    2.31628       .     S
H32   O286   2.19259       .     S
O286  H32    2.19259       .     S
H32   N37    2.34009       .     S
N37   H32    2.34009       .     S
H34   O283   2.05778       .     S
O283  H34    2.05778       .     S
H34   N21    2.28465       .     S
N21   H34    2.28465       .     S
H36   O226   2.08230       .     S
O226  H36    2.08230       .     S
H36   N16    2.46793       .     S
N16   H36    2.46793       .     S
H44   O285   1.97596       .     S
O285  H44    1.97596       .     S
H44   N19    2.34088       .     S
N19   H44    2.34088       .     S
S0    C58    1.67342       .     S
C58   S0     1.67342       .     S
S1    C79    1.69357       .     S
C79   S1     1.69357       .     S
S2    C85    1.69210       .     S
C85   S2     1.69210       .     S
S3    C94    1.69197       .     S
C94   S3     1.69197       .     S
O4    C68    1.21192       .     S
C68   O4     1.21192       .     S
O5    C67    1.22165       .     S
C67   O5     1.22165       .     S
O6    C74    1.23980       .     S
C74   O6     1.23980       .     S
N7    H8     0.87984       .     S
H8    N7     0.87984       .     S
N7    C69    1.46410       .     S
C69   N7     1.46410       .     S
N7    C74    1.35048       .     S
C74   N7     1.35048       .     S
O9    C91    1.24523       .     S
C91   O9     1.24523       .     S
N10   H11    0.88012       .     S
H11   N10    0.88012       .     S
N10   C51    1.41181       .     S
C51   N10    1.41181       .     S
N10   C58    1.34878       .     S
C58   N10    1.34878       .     S
N12   H13    0.87996       .     S
H13   N12    0.87996       .     S
N12   N23    1.38645       .     S
N23   N12    1.38645       .     S
N12   C68    1.36784       .     S
C68   N12    1.36784       .     S
N14   H15    0.88046       .     S
H15   N14    0.88046       .     S
N14   C60    1.44180       .     S
C60   N14    1.44180       .     S
N14   C91    1.33621       .     S
C91   N14    1.33621       .     S
N16   H17    0.88056       .     S
H17   N16    0.88056       .     S
N16   C92    1.45605       .     S
C92   N16    1.45605       .     S
N16   C101   1.33510       .     S
C101  N16    1.33510       .     S
O18   C80    1.22733       .     S
C80   O18    1.22733       .     S
N19   H20    0.88048       .     S
H20   N19    0.88048       .     S
N19   N45    1.40168       .     S
N45   N19    1.40168       .     S
N19   C95    1.34082       .     S
C95   N19    1.34082       .     S
N21   H22    0.88080       .     S
H22   N21    0.88080       .     S
N21   N27    1.38491       .     S
N27   N21    1.38491       .     S
N21   C67    1.35673       .     S
C67   N21    1.35673       .     S
N23   H24    0.87991       .     S
H24   N23    0.87991       .     S
N23   C58    1.36354       .     S
C58   N23    1.36354       .     S
O25   C98    1.23067       .     S
C98   O25    1.23067       .     S
N26   C52    1.34031       .     S
C52   N26    1.34031       .     S
N26   C59    1.32663       .     S
C59   N26    1.32663       .     S
N27   H28    0.88015       .     S
H28   N27    0.88015       .     S
N27   C85    1.34663       .     S
C85   N27    1.34663       .     S
N29   H30    0.88005       .     S
H30   N29    0.88005       .     S
N29   C64    1.41971       .     S
C64   N29    1.41971       .     S
N29   C79    1.32762       .     S
C79   N29    1.32762       .     S
N31   H32    0.87946       .     S
H32   N31    0.87946       .     S
N31   C96    1.45357       .     S
C96   N31    1.45357       .     S
N31   C98    1.34690       .     S
C98   N31    1.34690       .     S
N33   H34    0.88014       .     S
H34   N33    0.88014       .     S
N33   C48    1.40149       .     S
C48   N33    1.40149       .     S
N33   C85    1.35351       .     S
C85   N33    1.35351       .     S
N35   H36    0.87982       .     S
H36   N35    0.87982       .     S
N35   N39    1.36241       .     S
N39   N35    1.36241       .     S
N35   C80    1.35660       .     S
C80   N35    1.35660       .     S
N37   C71    1.34580       .     S
C71   N37    1.34580       .     S
N37   C88    1.32262       .     S
C88   N37    1.32262       .     S
O38   C95    1.22218       .     S
C95   O38    1.22218       .     S
N39   H40    0.88051       .     S
H40   N39    0.88051       .     S
N39   C79    1.37260       .     S
C79   N39    1.37260       .     S
C41   H42    0.95084       .     S
H42   C41    0.95084       .     S
C41   C48    1.39952       .     S
C48   C41    1.39952       .     S
C41   C54    1.39316       .     S
C54   C41    1.39316       .     S
N43   H44    0.88047       .     S
H44   N43    0.88047       .     S
N43   C53    1.42380       .     S
C53   N43    1.42380       .     S
N43   C94    1.34968       .     S
C94   N43    1.34968       .     S
N45   H46    0.88029       .     S
H46   N45    0.88029       .     S
N45   C94    1.34694       .     S
C94   N45    1.34694       .     S
O47   C101   1.23243       .     S
C101  O47    1.23243       .     S
C48   C49    1.37929       .     S
C49   C48    1.37929       .     S
C49   H50    0.94978       .     S
H50   C49    0.94978       .     S
C49   C77    1.38919       .     S
C77   C49    1.38919       .     S
C51   C65    1.40014       .     S
C65   C51    1.40014       .     S
C51   C72    1.38974       .     S
C72   C51    1.38974       .     S
C52   C75    1.39285       .     S
C75   C52    1.39285       .     S
C52   C91    1.49943       .     S
C91   C52    1.49943       .     S
C53   C56    1.40013       .     S
C56   C53    1.40013       .     S
C53   C89    1.37596       .     S
C89   C53    1.37596       .     S
C54   H55    0.95028       .     S
H55   C54    0.95028       .     S
C54   C64    1.38425       .     S
C64   C54    1.38425       .     S
C56   H57    0.94987       .     S
H57   C56    0.94987       .     S
C56   C65    1.38247       .     S
C65   C56    1.38247       .     S
C59   C99    1.37779       .     S
C99   C59    1.37779       .     S
C59   C101   1.51235       .     S
C101  C59    1.51235       .     S
C60   H61    0.99999       .     S
H61   C60    0.99999       .     S
C60   C68    1.53721       .     S
C68   C60    1.53721       .     S
C60   C102   1.51501       .     S
C102  C60    1.51501       .     S
C62   H63    0.95050       .     S
H63   C62    0.95050       .     S
C62   C71    1.39197       .     S
C71   C62    1.39197       .     S
C62   C86    1.36883       .     S
C86   C62    1.36883       .     S
C64   C77    1.39853       .     S
C77   C64    1.39853       .     S
C65   H66    0.94923       .     S
H66   C65    0.94923       .     S
C67   C69    1.52884       .     S
C69   C67    1.52884       .     S
C69   H70    1.00015       .     S
H70   C69    1.00015       .     S
C69   C112   1.51064       .     S
C112  C69    1.51064       .     S
C71   C74    1.51349       .     S
C74   C71    1.51349       .     S
C72   H73    0.94974       .     S
H73   C72    0.94974       .     S
C72   C89    1.39264       .     S
C89   C72    1.39264       .     S
C75   H76    0.94953       .     S
H76   C75    0.94953       .     S
C75   C106   1.38757       .     S
C106  C75    1.38757       .     S
C77   H78    0.95079       .     S
H78   C77    0.95079       .     S
C80   C92    1.51754       .     S
C92   C80    1.51754       .     S
C81   H82    0.97956       .     S
H82   C81    0.97956       .     S
C81   H83    0.98047       .     S
H83   C81    0.98047       .     S
C81   H84    0.98042       .     S
H84   C81    0.98042       .     S
C81   C92    1.52467       .     S
C92   C81    1.52467       .     S
C86   H87    0.94980       .     S
H87   C86    0.94980       .     S
C86   C116   1.39490       .     S
C116  C86    1.39490       .     S
C88   C98    1.49968       .     S
C98   C88    1.49968       .     S
C88   C116   1.39284       .     S
C116  C88    1.39284       .     S
C89   H90    0.94949       .     S
H90   C89    0.94949       .     S
C92   H93    1.00036       .     S
H93   C92    1.00036       .     S
C95   C96    1.53043       .     S
C96   C95    1.53043       .     S
C96   H97    0.99929       .     S
H97   C96    0.99929       .     S
C96   C108   1.51513       .     S
C108  C96    1.51513       .     S
C99   H100   0.94957       .     S
H100  C99    0.94957       .     S
C99   C106   1.39818       .     S
C106  C99    1.39818       .     S
C102  H103   0.97979       .     S
H103  C102   0.97979       .     S
C102  H104   0.97930       .     S
H104  C102   0.97930       .     S
C102  H105   0.98073       .     S
H105  C102   0.98073       .     S
C106  H107   0.94978       .     S
H107  C106   0.94978       .     S
C108  H109   0.97955       .     S
H109  C108   0.97955       .     S
C108  H110   0.98049       .     S
H110  C108   0.98049       .     S
C108  H111   0.97966       .     S
H111  C108   0.97966       .     S
C112  H113   0.97993       .     S
H113  C112   0.97993       .     S
C112  H114   0.98005       .     S
H114  C112   0.98005       .     S
C112  H115   0.98035       .     S
H115  C112   0.98035       .     S
C116  H117   0.94991       .     S
H117  C116   0.94991       .     S
N118  C122   1.52401       .     S
C122  N118   1.52401       .     S
N118  C125   1.50863   1_556     S
C125  N118   1.50863   1_554     S
N118  C134   1.52472       .     S
C134  N118   1.52472       .     S
N118  C141   1.53167   1_556     S
C141  N118   1.53167   1_554     S
C119  H120   0.98955       .     S
H120  C119   0.98955       .     S
C119  H121   0.99035       .     S
H121  C119   0.99035       .     S
C119  C125   1.51115       .     S
C125  C119   1.51115       .     S
C119  C128   1.52841       .     S
C128  C119   1.52841       .     S
C122  H123   0.99005       .     S
H123  C122   0.99005       .     S
C122  H124   0.99016       .     S
H124  C122   0.99016       .     S
C122  C150   1.52386       .     S
C150  C122   1.52386       .     S
C125  H126   0.98972       .     S
H126  C125   0.98972       .     S
C125  H127   0.99032       .     S
H127  C125   0.99032       .     S
C128  H129   0.98942       .     S
H129  C128   0.98942       .     S
C128  H130   0.99068       .     S
H130  C128   0.99068       .     S
C128  C137   1.52951       .     S
C137  C128   1.52951       .     S
C131  H132   0.98960       .     S
H132  C131   0.98960       .     S
C131  H133   0.99070       .     S
H133  C131   0.99070       .     S
C131  C150   1.51377       .     S
C150  C131   1.51377       .     S
C131  C164   1.49388       .     S
C164  C131   1.49388       .     S
C134  H135   0.98997       .     S
H135  C134   0.98997       .     S
C134  H136   0.98926       .     S
H136  C134   0.98926       .     S
C134  C144   1.52963   1_556     S
C144  C134   1.52963   1_554     S
C137  H138   0.97967       .     S
H138  C137   0.97967       .     S
C137  H139   0.98034       .     S
H139  C137   0.98034       .     S
C137  H140   0.97991       .     S
H140  C137   0.97991       .     S
C141  H142   0.98946       .     S
H142  C141   0.98946       .     S
C141  H143   0.99106       .     S
H143  C141   0.99106       .     S
C141  C168   1.49886   1_554     S
C168  C141   1.49886   1_556     S
C144  H145   0.99070       .     S
H145  C144   0.99070       .     S
C144  H146   0.98904       .     S
H146  C144   0.98904       .     S
C144  C147   1.53810       .     S
C147  C144   1.53810       .     S
C147  H148   0.99140       .     S
H148  C147   0.99140       .     S
C147  H149   0.98975   1_554     S
H149  C147   0.98975   1_556     S
C147  C156   1.52709       .     S
C156  C147   1.52709       .     S
C150  H151   0.99053       .     S
H151  C150   0.99053       .     S
C150  H152   0.98984       .     S
H152  C150   0.98984       .     S
C153  H154   0.99030   1_556     S
H154  C153   0.99030   1_554     S
C153  H155   0.99059       .     S
H155  C153   0.99059       .     S
C153  C160   1.50040       .     S
C160  C153   1.50040       .     S
C153  C168   1.51824       .     S
C168  C153   1.51824       .     S
C156  H157   0.97994       .     S
H157  C156   0.97994       .     S
C156  H158   0.98026       .     S
H158  C156   0.98026       .     S
C156  H159   0.98002       .     S
H159  C156   0.98002       .     S
C160  H161   0.98030       .     S
H161  C160   0.98030       .     S
C160  H162   0.97916       .     S
H162  C160   0.97916       .     S
C160  H163   0.98049       .     S
H163  C160   0.98049       .     S
C164  H165   0.98075       .     S
H165  C164   0.98075       .     S
C164  H166   0.97891       .     S
H166  C164   0.97891       .     S
C164  H167   0.98086       .     S
H167  C164   0.98086       .     S
C168  H169   0.99016       .     S
H169  C168   0.99016       .     S
C168  H170   0.99098       .     S
H170  C168   0.99098       .     S
N171  C178   1.49399       .     S
C178  N171   1.49399       .     S
N171  C181   1.52057       .     S
C181  N171   1.52057       .     S
N171  C198   1.49885       .     S
C198  N171   1.49885       .     S
N171  C201   1.51727       .     S
C201  N171   1.51727       .     S
C172  H173   0.99108       .     S
H173  C172   0.99108       .     S
C172  H174   0.98939       .     S
H174  C172   0.98939       .     S
C172  C198   1.53975       .     S
C198  C172   1.53975       .     S
C172  C207   1.47281       .     S
C207  C172   1.47281       .     S
C175  H176   0.98961       .     S
H176  C175   0.98961       .     S
C175  H177   0.98976       .     S
H177  C175   0.98976       .     S
C175  C178   1.50406       .     S
C178  C175   1.50406       .     S
C175  C204   1.53777       .     S
C204  C175   1.53777       .     S
C178  H179   0.98972       .     S
H179  C178   0.98972       .     S
C178  H180   0.99066       .     S
H180  C178   0.99066       .     S
C181  H182   0.98985       .     S
H182  C181   0.98985       .     S
C181  H183   0.99094       .     S
H183  C181   0.99094       .     S
C181  C188   1.52672       .     S
C188  C181   1.52672       .     S
C184  H185   0.98052       .     S
H185  C184   0.98052       .     S
C184  H186   0.98018       .     S
H186  C184   0.98018       .     S
C184  H187   0.97893       .     S
H187  C184   0.97893       .     S
C184  C204   1.50016       .     S
C204  C184   1.50016       .     S
C188  H189   0.99084       .     S
H189  C188   0.99084       .     S
C188  H190   0.98968       .     S
H190  C188   0.98968       .     S
C188  C191   1.53940       .     S
C191  C188   1.53940       .     S
C191  H192   0.99158       .     S
H192  C191   0.99158       .     S
C191  H193   0.98937       .     S
H193  C191   0.98937       .     S
C191  C210   1.36863       .     S
C210  C191   1.36863       .     S
C194  H195   0.97998       .     S
H195  C194   0.97998       .     S
C194  H196   0.98089       .     S
H196  C194   0.98089       .     S
C194  H197   0.97922       .     S
H197  C194   0.97922       .     S
C194  C207   1.52483       .     S
C207  C194   1.52483       .     S
C198  H199   0.98917       .     S
H199  C198   0.98917       .     S
C198  H200   0.98974       .     S
H200  C198   0.98974       .     S
C201  H202   0.98852       .     S
H202  C201   0.98852       .     S
C201  H203   0.99027       .     S
H203  C201   0.99027       .     S
C201  C217   1.43648       .     S
C217  C201   1.43648       .     S
C204  H205   0.98934       .     S
H205  C204   0.98934       .     S
C204  H206   0.99187       .     S
H206  C204   0.99187       .     S
C207  H208   0.99016       .     S
H208  C207   0.99016       .     S
C207  H209   0.98958       .     S
H209  C207   0.98958       .     S
C210  H211   0.98020       .     S
H211  C210   0.98020       .     S
C210  H212   0.98028       .     S
H212  C210   0.98028       .     S
C210  H213   0.98021       .     S
H213  C210   0.98021       .     S
C214  H215   0.98991       .     S
H215  C214   0.98991       .     S
C214  H216   0.98878       .     S
H216  C214   0.98878       .     S
C214  C217   1.54229       .     S
C217  C214   1.54229       .     S
C214  C220   1.50912       .     S
C220  C214   1.50912       .     S
C217  H218   0.99023       .     S
H218  C217   0.99023       .     S
C217  H219   0.99126       .     S
H219  C217   0.99126       .     S
C220  H221   0.97991       .     S
H221  C220   0.97991       .     S
C220  H222   0.97918       .     S
H222  C220   0.97918       .     S
C220  H223   0.98079       .     S
H223  C220   0.98079       .     S
S224  O225   1.46706       .     S
O225  S224   1.46706       .     S
S224  O226   1.48941       .     S
O226  S224   1.48941       .     S
S224  O227   1.47869       .     S
O227  S224   1.47869       .     S
S224  O228   1.47532       .     S
O228  S224   1.47532       .     S
N229  C230   1.51556       .     S
C230  N229   1.51556       .     S
N229  C243   1.50749       .     S
C243  N229   1.50749       .     S
N229  C246   1.44091       .     S
C246  N229   1.44091       .     S
N229  C249   1.51803       .     S
C249  N229   1.51803       .     S
C230  H231   0.99075       .     S
H231  C230   0.99075       .     S
C230  H232   0.99003       .     S
H232  C230   0.99003       .     S
C230  C233   1.50985       .     S
C233  C230   1.50985       .     S
C233  H234   0.98935       .     S
H234  C233   0.98935       .     S
C233  H235   0.98971       .     S
H235  C233   0.98971       .     S
C233  C236   1.52794       .     S
C236  C233   1.52794       .     S
C236  H237   0.98942       .     S
H237  C236   0.98942       .     S
C236  H238   0.99095       .     S
H238  C236   0.99095       .     S
C236  C239   1.52326       .     S
C239  C236   1.52326       .     S
C239  H240   0.98019       .     S
H240  C239   0.98019       .     S
C239  H241   0.98003       .     S
H241  C239   0.98003       .     S
C239  H242   0.98022       .     S
H242  C239   0.98022       .     S
C243  H244   0.98872       .     S
H244  C243   0.98872       .     S
C243  H245   0.99064       .     S
H245  C243   0.99064       .     S
C243  C268   1.54773       .     S
C268  C243   1.54773       .     S
C246  H247   0.99075       .     S
H247  C246   0.99075       .     S
C246  H248   0.98997       .     S
H248  C246   0.98997       .     S
C246  C255   1.40198       .     S
C255  C246   1.40198       .     S
C249  H250   0.99100       .     S
H250  C249   0.99100       .     S
C249  H251   0.98984       .     S
H251  C249   0.98984       .     S
C249  C258   1.55177       .     S
C258  C249   1.55177       .     S
C252  H253   0.99013       .     S
H253  C252   0.99013       .     S
C252  H254   0.99030       .     S
H254  C252   0.99030       .     S
C252  C255   1.60301       .     S
C255  C252   1.60301       .     S
C252  C264   1.39448       .     S
C264  C252   1.39448       .     S
C255  H256   0.98934       .     S
H256  C255   0.98934       .     S
C255  H257   0.99028       .     S
H257  C255   0.99028       .     S
C258  H259   0.99001       .     S
H259  C258   0.99001       .     S
C258  H260   0.98897       .     S
H260  C258   0.98897       .     S
C258  C261   1.55996       .     S
C261  C258   1.55996       .     S
C261  H262   0.99120       .     S
H262  C261   0.99120       .     S
C261  H263   0.98903       .     S
H263  C261   0.98903       .     S
C261  C278   1.43255       .     S
C278  C261   1.43255       .     S
C264  H265   0.97963       .     S
H265  C264   0.97963       .     S
C264  H266   0.98085       .     S
H266  C264   0.98085       .     S
C264  H267   0.97973       .     S
H267  C264   0.97973       .     S
C268  H269   0.99047       .     S
H269  C268   0.99047       .     S
C268  H270   0.99075       .     S
H270  C268   0.99075       .     S
C268  C275   1.35459       .     S
C275  C268   1.35459       .     S
C271  H272   0.97975       .     S
H272  C271   0.97975       .     S
C271  H273   0.98092       .     S
H273  C271   0.98092       .     S
C271  H274   0.98020       .     S
H274  C271   0.98020       .     S
C271  C275   1.40614       .     S
C275  C271   1.40614       .     S
C275  H276   0.99002       .     S
H276  C275   0.99002       .     S
C275  H277   0.98999       .     S
H277  C275   0.98999       .     S
C278  H279   0.97984       .     S
H279  C278   0.97984       .     S
C278  H280   0.98077       .     S
H280  C278   0.98077       .     S
C278  H281   0.97922       .     S
H281  C278   0.97922       .     S
S282  O283   1.47600       .     S
O283  S282   1.47600       .     S
S282  O284   1.49053       .     S
O284  S282   1.49053       .     S
S282  O285   1.47805       .     S
O285  S282   1.47805       .     S
S282  O286   1.48002       .     S
O286  S282   1.48002       .     S
N287  C297   1.53882       .     S
C297  N287   1.53882       .     S
N287  C300   1.54650       .     S
C300  N287   1.54650       .     S
N287  C306   1.51475       .     S
C306  N287   1.51475       .     S
N287  C330   1.51653       .     S
C330  N287   1.51653       .     S
C288  H289   0.98921       .     S
H289  C288   0.98921       .     S
C288  H290   0.99005       .     S
H290  C288   0.99005       .     S
C288  C294   1.53794       .     S
C294  C288   1.53794       .     S
C288  C309   1.50808       .     S
C309  C288   1.50808       .     S
C291  H292   0.98927       .     S
H292  C291   0.98927       .     S
C291  H293   0.98993       .     S
H293  C291   0.98993       .     S
C291  C306   1.50914       .     S
C306  C291   1.50914       .     S
C291  C316   1.54261       .     S
C316  C291   1.54261       .     S
C294  H295   0.98975       .     S
H295  C294   0.98975       .     S
C294  H296   0.99051       .     S
H296  C294   0.99051       .     S
C294  C297   1.49663       .     S
C297  C294   1.49663       .     S
C297  H298   0.98954       .     S
H298  C297   0.98954       .     S
C297  H299   0.98916       .     S
H299  C297   0.98916       .     S
C300  H301   0.99045       .     S
H301  C300   0.99045       .     S
C300  H302   0.99040       .     S
H302  C300   0.99040       .     S
C300  C303   1.51124       .     S
C303  C300   1.51124       .     S
C303  H304   0.99021       .     S
H304  C303   0.99021       .     S
C303  H305   0.99028       .     S
H305  C303   0.99028       .     S
C303  C327   1.51879       .     S
C327  C303   1.51879       .     S
C306  H307   0.98932       .     S
H307  C306   0.98932       .     S
C306  H308   0.99054       .     S
H308  C306   0.99054       .     S
C309  H310   0.98098       .     S
H310  C309   0.98098       .     S
C309  H311   0.97944       .     S
H311  C309   0.97944       .     S
C309  H312   0.97948       .     S
H312  C309   0.97948       .     S
C313  H314   0.99058   1_565     S
H314  C313   0.99058   1_545     S
C313  H315   0.99089       .     S
H315  C313   0.99089       .     S
C313  C333   1.66453       .     S
C333  C313   1.66453       .     S
C313  C336   1.46531   1_565     S
C336  C313   1.46531   1_545     S
C316  H317   0.98930       .     S
H317  C316   0.98930       .     S
C316  H318   0.99183       .     S
H318  C316   0.99183       .     S
C316  C323   1.52508       .     S
C323  C316   1.52508       .     S
C319  H320   0.98091   1_565     S
H320  C319   0.98091   1_545     S
C319  H321   0.97974   1_565     S
H321  C319   0.97974   1_545     S
C319  H322   0.97891       .     S
H322  C319   0.97891       .     S
C319  C327   1.51421       .     S
C327  C319   1.51421       .     S
C323  H324   0.98001       .     S
H324  C323   0.98001       .     S
C323  H325   0.98034       .     S
H325  C323   0.98034       .     S
C323  H326   0.98006       .     S
H326  C323   0.98006       .     S
C327  H328   0.98977       .     S
H328  C327   0.98977       .     S
C327  H329   0.98953   1_565     S
H329  C327   0.98953   1_545     S
C330  H331   0.98993       .     S
H331  C330   0.98993       .     S
C330  H332   0.99138       .     S
H332  C330   0.99138       .     S
C330  C333   1.37920       .     S
C333  C330   1.37920       .     S
C333  H334   0.99138       .     S
H334  C333   0.99138       .     S
C333  H335   0.98874       .     S
H335  C333   0.98874       .     S
C336  H337   0.97988   1_545     S
H337  C336   0.97988   1_565     S
C336  H338   0.97922       .     S
H338  C336   0.97922       .     S
C336  H339   0.98106       .     S
H339  C336   0.98106       .     S
O286  H8     2.15821       .     S
H8    O286   2.15821       .     S
N37   H8     2.36808       .     S
H8    N37    2.36808       .     S
O228  H11    2.05750       .     S
H11   O228   2.05750       .     S
N12   H11    2.28720       .     S
H11   N12    2.28720       .     S
O226  H13    2.28328       .     S
H13   O226   2.28328       .     S
N14   H13    2.43181       .     S
H13   N14    2.43181       .     S
O227  H15    2.02885       .     S
H15   O227   2.02885       .     S
N26   H15    2.30986       .     S
H15   N26    2.30986       .     S
O227  H17    2.08904       .     S
H17   O227   2.08904       .     S
N26   H17    2.29821       .     S
H17   N26    2.29821       .     S
O284  H20    2.01492       .     S
H20   O284   2.01492       .     S
N31   H20    2.43414       .     S
H20   N31    2.43414       .     S
O284  H22    2.25112       .     S
H22   O284   2.25112       .     S
N7    H22    2.39712       .     S
H22   N7     2.39712       .     S
O225  H30    1.94485       .     S
H30   O225   1.94485       .     S
N35   H30    2.31628       .     S
H30   N35    2.31628       .     S
O286  H32    2.19259       .     S
H32   O286   2.19259       .     S
N37   H32    2.34009       .     S
H32   N37    2.34009       .     S
O283  H34    2.05778       .     S
H34   O283   2.05778       .     S
N21   H34    2.28465       .     S
H34   N21    2.28465       .     S
O226  H36    2.08230       .     S
H36   O226   2.08230       .     S
N16   H36    2.46793       .     S
H36   N16    2.46793       .     S
O285  H44    1.97596       .     S
H44   O285   1.97596       .     S
N19   H44    2.34088       .     S
H44   N19    2.34088       .     S
C58   S0     1.67342       .     S
S0    C58    1.67342       .     S
C79   S1     1.69357       .     S
S1    C79    1.69357       .     S
C85   S2     1.69210       .     S
S2    C85    1.69210       .     S
C94   S3     1.69197       .     S
S3    C94    1.69197       .     S
C68   O4     1.21192       .     S
O4    C68    1.21192       .     S
C67   O5     1.22165       .     S
O5    C67    1.22165       .     S
C74   O6     1.23980       .     S
O6    C74    1.23980       .     S
H8    N7     0.87984       .     S
N7    H8     0.87984       .     S
C69   N7     1.46410       .     S
N7    C69    1.46410       .     S
C74   N7     1.35048       .     S
N7    C74    1.35048       .     S
C91   O9     1.24523       .     S
O9    C91    1.24523       .     S
H11   N10    0.88012       .     S
N10   H11    0.88012       .     S
C51   N10    1.41181       .     S
N10   C51    1.41181       .     S
C58   N10    1.34878       .     S
N10   C58    1.34878       .     S
H13   N12    0.87996       .     S
N12   H13    0.87996       .     S
N23   N12    1.38645       .     S
N12   N23    1.38645       .     S
C68   N12    1.36784       .     S
N12   C68    1.36784       .     S
H15   N14    0.88046       .     S
N14   H15    0.88046       .     S
C60   N14    1.44180       .     S
N14   C60    1.44180       .     S
C91   N14    1.33621       .     S
N14   C91    1.33621       .     S
H17   N16    0.88056       .     S
N16   H17    0.88056       .     S
C92   N16    1.45605       .     S
N16   C92    1.45605       .     S
C101  N16    1.33510       .     S
N16   C101   1.33510       .     S
C80   O18    1.22733       .     S
O18   C80    1.22733       .     S
H20   N19    0.88048       .     S
N19   H20    0.88048       .     S
N45   N19    1.40168       .     S
N19   N45    1.40168       .     S
C95   N19    1.34082       .     S
N19   C95    1.34082       .     S
H22   N21    0.88080       .     S
N21   H22    0.88080       .     S
N27   N21    1.38491       .     S
N21   N27    1.38491       .     S
C67   N21    1.35673       .     S
N21   C67    1.35673       .     S
H24   N23    0.87991       .     S
N23   H24    0.87991       .     S
C58   N23    1.36354       .     S
N23   C58    1.36354       .     S
C98   O25    1.23067       .     S
O25   C98    1.23067       .     S
C52   N26    1.34031       .     S
N26   C52    1.34031       .     S
C59   N26    1.32663       .     S
N26   C59    1.32663       .     S
H28   N27    0.88015       .     S
N27   H28    0.88015       .     S
C85   N27    1.34663       .     S
N27   C85    1.34663       .     S
H30   N29    0.88005       .     S
N29   H30    0.88005       .     S
C64   N29    1.41971       .     S
N29   C64    1.41971       .     S
C79   N29    1.32762       .     S
N29   C79    1.32762       .     S
H32   N31    0.87946       .     S
N31   H32    0.87946       .     S
C96   N31    1.45357       .     S
N31   C96    1.45357       .     S
C98   N31    1.34690       .     S
N31   C98    1.34690       .     S
H34   N33    0.88014       .     S
N33   H34    0.88014       .     S
C48   N33    1.40149       .     S
N33   C48    1.40149       .     S
C85   N33    1.35351       .     S
N33   C85    1.35351       .     S
H36   N35    0.87982       .     S
N35   H36    0.87982       .     S
N39   N35    1.36241       .     S
N35   N39    1.36241       .     S
C80   N35    1.35660       .     S
N35   C80    1.35660       .     S
C71   N37    1.34580       .     S
N37   C71    1.34580       .     S
C88   N37    1.32262       .     S
N37   C88    1.32262       .     S
C95   O38    1.22218       .     S
O38   C95    1.22218       .     S
H40   N39    0.88051       .     S
N39   H40    0.88051       .     S
C79   N39    1.37260       .     S
N39   C79    1.37260       .     S
H42   C41    0.95084       .     S
C41   H42    0.95084       .     S
C48   C41    1.39952       .     S
C41   C48    1.39952       .     S
C54   C41    1.39316       .     S
C41   C54    1.39316       .     S
H44   N43    0.88047       .     S
N43   H44    0.88047       .     S
C53   N43    1.42380       .     S
N43   C53    1.42380       .     S
C94   N43    1.34968       .     S
N43   C94    1.34968       .     S
H46   N45    0.88029       .     S
N45   H46    0.88029       .     S
C94   N45    1.34694       .     S
N45   C94    1.34694       .     S
C101  O47    1.23243       .     S
O47   C101   1.23243       .     S
C49   C48    1.37929       .     S
C48   C49    1.37929       .     S
H50   C49    0.94978       .     S
C49   H50    0.94978       .     S
C77   C49    1.38919       .     S
C49   C77    1.38919       .     S
C65   C51    1.40014       .     S
C51   C65    1.40014       .     S
C72   C51    1.38974       .     S
C51   C72    1.38974       .     S
C75   C52    1.39285       .     S
C52   C75    1.39285       .     S
C91   C52    1.49943       .     S
C52   C91    1.49943       .     S
C56   C53    1.40013       .     S
C53   C56    1.40013       .     S
C89   C53    1.37596       .     S
C53   C89    1.37596       .     S
H55   C54    0.95028       .     S
C54   H55    0.95028       .     S
C64   C54    1.38425       .     S
C54   C64    1.38425       .     S
H57   C56    0.94987       .     S
C56   H57    0.94987       .     S
C65   C56    1.38247       .     S
C56   C65    1.38247       .     S
C99   C59    1.37779       .     S
C59   C99    1.37779       .     S
C101  C59    1.51235       .     S
C59   C101   1.51235       .     S
H61   C60    0.99999       .     S
C60   H61    0.99999       .     S
C68   C60    1.53721       .     S
C60   C68    1.53721       .     S
C102  C60    1.51501       .     S
C60   C102   1.51501       .     S
H63   C62    0.95050       .     S
C62   H63    0.95050       .     S
C71   C62    1.39197       .     S
C62   C71    1.39197       .     S
C86   C62    1.36883       .     S
C62   C86    1.36883       .     S
C77   C64    1.39853       .     S
C64   C77    1.39853       .     S
H66   C65    0.94923       .     S
C65   H66    0.94923       .     S
C69   C67    1.52884       .     S
C67   C69    1.52884       .     S
H70   C69    1.00015       .     S
C69   H70    1.00015       .     S
C112  C69    1.51064       .     S
C69   C112   1.51064       .     S
C74   C71    1.51349       .     S
C71   C74    1.51349       .     S
H73   C72    0.94974       .     S
C72   H73    0.94974       .     S
C89   C72    1.39264       .     S
C72   C89    1.39264       .     S
H76   C75    0.94953       .     S
C75   H76    0.94953       .     S
C106  C75    1.38757       .     S
C75   C106   1.38757       .     S
H78   C77    0.95079       .     S
C77   H78    0.95079       .     S
C92   C80    1.51754       .     S
C80   C92    1.51754       .     S
H82   C81    0.97956       .     S
C81   H82    0.97956       .     S
H83   C81    0.98047       .     S
C81   H83    0.98047       .     S
H84   C81    0.98042       .     S
C81   H84    0.98042       .     S
C92   C81    1.52467       .     S
C81   C92    1.52467       .     S
H87   C86    0.94980       .     S
C86   H87    0.94980       .     S
C116  C86    1.39490       .     S
C86   C116   1.39490       .     S
C98   C88    1.49968       .     S
C88   C98    1.49968       .     S
C116  C88    1.39284       .     S
C88   C116   1.39284       .     S
H90   C89    0.94949       .     S
C89   H90    0.94949       .     S
H93   C92    1.00036       .     S
C92   H93    1.00036       .     S
C96   C95    1.53043       .     S
C95   C96    1.53043       .     S
H97   C96    0.99929       .     S
C96   H97    0.99929       .     S
C108  C96    1.51513       .     S
C96   C108   1.51513       .     S
H100  C99    0.94957       .     S
C99   H100   0.94957       .     S
C106  C99    1.39818       .     S
C99   C106   1.39818       .     S
H103  C102   0.97979       .     S
C102  H103   0.97979       .     S
H104  C102   0.97930       .     S
C102  H104   0.97930       .     S
H105  C102   0.98073       .     S
C102  H105   0.98073       .     S
H107  C106   0.94978       .     S
C106  H107   0.94978       .     S
H109  C108   0.97955       .     S
C108  H109   0.97955       .     S
H110  C108   0.98049       .     S
C108  H110   0.98049       .     S
H111  C108   0.97966       .     S
C108  H111   0.97966       .     S
H113  C112   0.97993       .     S
C112  H113   0.97993       .     S
H114  C112   0.98005       .     S
C112  H114   0.98005       .     S
H115  C112   0.98035       .     S
C112  H115   0.98035       .     S
H117  C116   0.94991       .     S
C116  H117   0.94991       .     S
C122  N118   1.52401       .     S
N118  C122   1.52401       .     S
C125  N118   1.50863   1_554     S
N118  C125   1.50863   1_556     S
C134  N118   1.52472       .     S
N118  C134   1.52472       .     S
C141  N118   1.53167   1_554     S
N118  C141   1.53167   1_556     S
H120  C119   0.98955       .     S
C119  H120   0.98955       .     S
H121  C119   0.99035       .     S
C119  H121   0.99035       .     S
C125  C119   1.51115       .     S
C119  C125   1.51115       .     S
C128  C119   1.52841       .     S
C119  C128   1.52841       .     S
H123  C122   0.99005       .     S
C122  H123   0.99005       .     S
H124  C122   0.99016       .     S
C122  H124   0.99016       .     S
C150  C122   1.52386       .     S
C122  C150   1.52386       .     S
H126  C125   0.98972       .     S
C125  H126   0.98972       .     S
H127  C125   0.99032       .     S
C125  H127   0.99032       .     S
H129  C128   0.98942       .     S
C128  H129   0.98942       .     S
H130  C128   0.99068       .     S
C128  H130   0.99068       .     S
C137  C128   1.52951       .     S
C128  C137   1.52951       .     S
H132  C131   0.98960       .     S
C131  H132   0.98960       .     S
H133  C131   0.99070       .     S
C131  H133   0.99070       .     S
C150  C131   1.51377       .     S
C131  C150   1.51377       .     S
C164  C131   1.49388       .     S
C131  C164   1.49388       .     S
H135  C134   0.98997       .     S
C134  H135   0.98997       .     S
H136  C134   0.98926       .     S
C134  H136   0.98926       .     S
C144  C134   1.52963   1_554     S
C134  C144   1.52963   1_556     S
H138  C137   0.97967       .     S
C137  H138   0.97967       .     S
H139  C137   0.98034       .     S
C137  H139   0.98034       .     S
H140  C137   0.97991       .     S
C137  H140   0.97991       .     S
H142  C141   0.98946       .     S
C141  H142   0.98946       .     S
H143  C141   0.99106       .     S
C141  H143   0.99106       .     S
C168  C141   1.49886   1_556     S
C141  C168   1.49886   1_554     S
H145  C144   0.99070       .     S
C144  H145   0.99070       .     S
H146  C144   0.98904       .     S
C144  H146   0.98904       .     S
C147  C144   1.53810       .     S
C144  C147   1.53810       .     S
H148  C147   0.99140       .     S
C147  H148   0.99140       .     S
H149  C147   0.98975   1_556     S
C147  H149   0.98975   1_554     S
C156  C147   1.52709       .     S
C147  C156   1.52709       .     S
H151  C150   0.99053       .     S
C150  H151   0.99053       .     S
H152  C150   0.98984       .     S
C150  H152   0.98984       .     S
H154  C153   0.99030   1_554     S
C153  H154   0.99030   1_556     S
H155  C153   0.99059       .     S
C153  H155   0.99059       .     S
C160  C153   1.50040       .     S
C153  C160   1.50040       .     S
C168  C153   1.51824       .     S
C153  C168   1.51824       .     S
H157  C156   0.97994       .     S
C156  H157   0.97994       .     S
H158  C156   0.98026       .     S
C156  H158   0.98026       .     S
H159  C156   0.98002       .     S
C156  H159   0.98002       .     S
H161  C160   0.98030       .     S
C160  H161   0.98030       .     S
H162  C160   0.97916       .     S
C160  H162   0.97916       .     S
H163  C160   0.98049       .     S
C160  H163   0.98049       .     S
H165  C164   0.98075       .     S
C164  H165   0.98075       .     S
H166  C164   0.97891       .     S
C164  H166   0.97891       .     S
H167  C164   0.98086       .     S
C164  H167   0.98086       .     S
H169  C168   0.99016       .     S
C168  H169   0.99016       .     S
H170  C168   0.99098       .     S
C168  H170   0.99098       .     S
C178  N171   1.49399       .     S
N171  C178   1.49399       .     S
C181  N171   1.52057       .     S
N171  C181   1.52057       .     S
C198  N171   1.49885       .     S
N171  C198   1.49885       .     S
C201  N171   1.51727       .     S
N171  C201   1.51727       .     S
H173  C172   0.99108       .     S
C172  H173   0.99108       .     S
H174  C172   0.98939       .     S
C172  H174   0.98939       .     S
C198  C172   1.53975       .     S
C172  C198   1.53975       .     S
C207  C172   1.47281       .     S
C172  C207   1.47281       .     S
H176  C175   0.98961       .     S
C175  H176   0.98961       .     S
H177  C175   0.98976       .     S
C175  H177   0.98976       .     S
C178  C175   1.50406       .     S
C175  C178   1.50406       .     S
C204  C175   1.53777       .     S
C175  C204   1.53777       .     S
H179  C178   0.98972       .     S
C178  H179   0.98972       .     S
H180  C178   0.99066       .     S
C178  H180   0.99066       .     S
H182  C181   0.98985       .     S
C181  H182   0.98985       .     S
H183  C181   0.99094       .     S
C181  H183   0.99094       .     S
C188  C181   1.52672       .     S
C181  C188   1.52672       .     S
H185  C184   0.98052       .     S
C184  H185   0.98052       .     S
H186  C184   0.98018       .     S
C184  H186   0.98018       .     S
H187  C184   0.97893       .     S
C184  H187   0.97893       .     S
C204  C184   1.50016       .     S
C184  C204   1.50016       .     S
H189  C188   0.99084       .     S
C188  H189   0.99084       .     S
H190  C188   0.98968       .     S
C188  H190   0.98968       .     S
C191  C188   1.53940       .     S
C188  C191   1.53940       .     S
H192  C191   0.99158       .     S
C191  H192   0.99158       .     S
H193  C191   0.98937       .     S
C191  H193   0.98937       .     S
C210  C191   1.36863       .     S
C191  C210   1.36863       .     S
H195  C194   0.97998       .     S
C194  H195   0.97998       .     S
H196  C194   0.98089       .     S
C194  H196   0.98089       .     S
H197  C194   0.97922       .     S
C194  H197   0.97922       .     S
C207  C194   1.52483       .     S
C194  C207   1.52483       .     S
H199  C198   0.98917       .     S
C198  H199   0.98917       .     S
H200  C198   0.98974       .     S
C198  H200   0.98974       .     S
H202  C201   0.98852       .     S
C201  H202   0.98852       .     S
H203  C201   0.99027       .     S
C201  H203   0.99027       .     S
C217  C201   1.43648       .     S
C201  C217   1.43648       .     S
H205  C204   0.98934       .     S
C204  H205   0.98934       .     S
H206  C204   0.99187       .     S
C204  H206   0.99187       .     S
H208  C207   0.99016       .     S
C207  H208   0.99016       .     S
H209  C207   0.98958       .     S
C207  H209   0.98958       .     S
H211  C210   0.98020       .     S
C210  H211   0.98020       .     S
H212  C210   0.98028       .     S
C210  H212   0.98028       .     S
H213  C210   0.98021       .     S
C210  H213   0.98021       .     S
H215  C214   0.98991       .     S
C214  H215   0.98991       .     S
H216  C214   0.98878       .     S
C214  H216   0.98878       .     S
C217  C214   1.54229       .     S
C214  C217   1.54229       .     S
C220  C214   1.50912       .     S
C214  C220   1.50912       .     S
H218  C217   0.99023       .     S
C217  H218   0.99023       .     S
H219  C217   0.99126       .     S
C217  H219   0.99126       .     S
H221  C220   0.97991       .     S
C220  H221   0.97991       .     S
H222  C220   0.97918       .     S
C220  H222   0.97918       .     S
H223  C220   0.98079       .     S
C220  H223   0.98079       .     S
O225  S224   1.46706       .     S
S224  O225   1.46706       .     S
O226  S224   1.48941       .     S
S224  O226   1.48941       .     S
O227  S224   1.47869       .     S
S224  O227   1.47869       .     S
O228  S224   1.47532       .     S
S224  O228   1.47532       .     S
C230  N229   1.51556       .     S
N229  C230   1.51556       .     S
C243  N229   1.50749       .     S
N229  C243   1.50749       .     S
C246  N229   1.44091       .     S
N229  C246   1.44091       .     S
C249  N229   1.51803       .     S
N229  C249   1.51803       .     S
H231  C230   0.99075       .     S
C230  H231   0.99075       .     S
H232  C230   0.99003       .     S
C230  H232   0.99003       .     S
C233  C230   1.50985       .     S
C230  C233   1.50985       .     S
H234  C233   0.98935       .     S
C233  H234   0.98935       .     S
H235  C233   0.98971       .     S
C233  H235   0.98971       .     S
C236  C233   1.52794       .     S
C233  C236   1.52794       .     S
H237  C236   0.98942       .     S
C236  H237   0.98942       .     S
H238  C236   0.99095       .     S
C236  H238   0.99095       .     S
C239  C236   1.52326       .     S
C236  C239   1.52326       .     S
H240  C239   0.98019       .     S
C239  H240   0.98019       .     S
H241  C239   0.98003       .     S
C239  H241   0.98003       .     S
H242  C239   0.98022       .     S
C239  H242   0.98022       .     S
H244  C243   0.98872       .     S
C243  H244   0.98872       .     S
H245  C243   0.99064       .     S
C243  H245   0.99064       .     S
C268  C243   1.54773       .     S
C243  C268   1.54773       .     S
H247  C246   0.99075       .     S
C246  H247   0.99075       .     S
H248  C246   0.98997       .     S
C246  H248   0.98997       .     S
C255  C246   1.40198       .     S
C246  C255   1.40198       .     S
H250  C249   0.99100       .     S
C249  H250   0.99100       .     S
H251  C249   0.98984       .     S
C249  H251   0.98984       .     S
C258  C249   1.55177       .     S
C249  C258   1.55177       .     S
H253  C252   0.99013       .     S
C252  H253   0.99013       .     S
H254  C252   0.99030       .     S
C252  H254   0.99030       .     S
C255  C252   1.60301       .     S
C252  C255   1.60301       .     S
C264  C252   1.39448       .     S
C252  C264   1.39448       .     S
H256  C255   0.98934       .     S
C255  H256   0.98934       .     S
H257  C255   0.99028       .     S
C255  H257   0.99028       .     S
H259  C258   0.99001       .     S
C258  H259   0.99001       .     S
H260  C258   0.98897       .     S
C258  H260   0.98897       .     S
C261  C258   1.55996       .     S
C258  C261   1.55996       .     S
H262  C261   0.99120       .     S
C261  H262   0.99120       .     S
H263  C261   0.98903       .     S
C261  H263   0.98903       .     S
C278  C261   1.43255       .     S
C261  C278   1.43255       .     S
H265  C264   0.97963       .     S
C264  H265   0.97963       .     S
H266  C264   0.98085       .     S
C264  H266   0.98085       .     S
H267  C264   0.97973       .     S
C264  H267   0.97973       .     S
H269  C268   0.99047       .     S
C268  H269   0.99047       .     S
H270  C268   0.99075       .     S
C268  H270   0.99075       .     S
C275  C268   1.35459       .     S
C268  C275   1.35459       .     S
H272  C271   0.97975       .     S
C271  H272   0.97975       .     S
H273  C271   0.98092       .     S
C271  H273   0.98092       .     S
H274  C271   0.98020       .     S
C271  H274   0.98020       .     S
C275  C271   1.40614       .     S
C271  C275   1.40614       .     S
H276  C275   0.99002       .     S
C275  H276   0.99002       .     S
H277  C275   0.98999       .     S
C275  H277   0.98999       .     S
H279  C278   0.97984       .     S
C278  H279   0.97984       .     S
H280  C278   0.98077       .     S
C278  H280   0.98077       .     S
H281  C278   0.97922       .     S
C278  H281   0.97922       .     S
O283  S282   1.47600       .     S
S282  O283   1.47600       .     S
O284  S282   1.49053       .     S
S282  O284   1.49053       .     S
O285  S282   1.47805       .     S
S282  O285   1.47805       .     S
O286  S282   1.48002       .     S
S282  O286   1.48002       .     S
C297  N287   1.53882       .     S
N287  C297   1.53882       .     S
C300  N287   1.54650       .     S
N287  C300   1.54650       .     S
C306  N287   1.51475       .     S
N287  C306   1.51475       .     S
C330  N287   1.51653       .     S
N287  C330   1.51653       .     S
H289  C288   0.98921       .     S
C288  H289   0.98921       .     S
H290  C288   0.99005       .     S
C288  H290   0.99005       .     S
C294  C288   1.53794       .     S
C288  C294   1.53794       .     S
C309  C288   1.50808       .     S
C288  C309   1.50808       .     S
H292  C291   0.98927       .     S
C291  H292   0.98927       .     S
H293  C291   0.98993       .     S
C291  H293   0.98993       .     S
C306  C291   1.50914       .     S
C291  C306   1.50914       .     S
C316  C291   1.54261       .     S
C291  C316   1.54261       .     S
H295  C294   0.98975       .     S
C294  H295   0.98975       .     S
H296  C294   0.99051       .     S
C294  H296   0.99051       .     S
C297  C294   1.49663       .     S
C294  C297   1.49663       .     S
H298  C297   0.98954       .     S
C297  H298   0.98954       .     S
H299  C297   0.98916       .     S
C297  H299   0.98916       .     S
H301  C300   0.99045       .     S
C300  H301   0.99045       .     S
H302  C300   0.99040       .     S
C300  H302   0.99040       .     S
C303  C300   1.51124       .     S
C300  C303   1.51124       .     S
H304  C303   0.99021       .     S
C303  H304   0.99021       .     S
H305  C303   0.99028       .     S
C303  H305   0.99028       .     S
C327  C303   1.51879       .     S
C303  C327   1.51879       .     S
H307  C306   0.98932       .     S
C306  H307   0.98932       .     S
H308  C306   0.99054       .     S
C306  H308   0.99054       .     S
H310  C309   0.98098       .     S
C309  H310   0.98098       .     S
H311  C309   0.97944       .     S
C309  H311   0.97944       .     S
H312  C309   0.97948       .     S
C309  H312   0.97948       .     S
H314  C313   0.99058   1_545     S
C313  H314   0.99058   1_565     S
H315  C313   0.99089       .     S
C313  H315   0.99089       .     S
C333  C313   1.66453       .     S
C313  C333   1.66453       .     S
C336  C313   1.46531   1_545     S
C313  C336   1.46531   1_565     S
H317  C316   0.98930       .     S
C316  H317   0.98930       .     S
H318  C316   0.99183       .     S
C316  H318   0.99183       .     S
C323  C316   1.52508       .     S
C316  C323   1.52508       .     S
H320  C319   0.98091   1_545     S
C319  H320   0.98091   1_565     S
H321  C319   0.97974   1_545     S
C319  H321   0.97974   1_565     S
H322  C319   0.97891       .     S
C319  H322   0.97891       .     S
C327  C319   1.51421       .     S
C319  C327   1.51421       .     S
H324  C323   0.98001       .     S
C323  H324   0.98001       .     S
H325  C323   0.98034       .     S
C323  H325   0.98034       .     S
H326  C323   0.98006       .     S
C323  H326   0.98006       .     S
H328  C327   0.98977       .     S
C327  H328   0.98977       .     S
H329  C327   0.98953   1_545     S
C327  H329   0.98953   1_565     S
H331  C330   0.98993       .     S
C330  H331   0.98993       .     S
H332  C330   0.99138       .     S
C330  H332   0.99138       .     S
C333  C330   1.37920       .     S
C330  C333   1.37920       .     S
H334  C333   0.99138       .     S
C333  H334   0.99138       .     S
H335  C333   0.98874       .     S
C333  H335   0.98874       .     S
H337  C336   0.97988   1_565     S
C336  H337   0.97988   1_545     S
H338  C336   0.97922       .     S
C336  H338   0.97922       .     S
H339  C336   0.98106       .     S
C336  H339   0.98106       .     S
