data_I
_chemical_name_common  '/data/user2/wty/HOF/MOFDiff/mofdiff/data/test/203[1lso42]tba4'
_cell_length_a 34.57000
_cell_length_b 23.42350
_cell_length_c 17.38790
_cell_angle_alpha 90.00000
_cell_angle_beta  90.00000
_cell_angle_gamma 90.00000
_space_group_name_H-M_alt      'P 1'


loop_
_space_group_symop_operation_xyz
  'x, y, z' 

loop_
_atom_site_label
_atom_site_fract_x
_atom_site_fract_y
_atom_site_fract_z
_atom_site_type_symbol
S0     0.34021  0.39137  0.78789     S
S1     0.23821  0.37772  0.34673     S
S2     0.51716  0.38034  0.60892     S
S3     0.42529  0.38783  0.21416     S
O4     0.55825  0.20357   0.6475     O
O5     0.19597  0.21424   0.3535     O
O6     0.63249  0.14908   0.5231     O
N7     0.57279  0.12735   0.4744     N
H8     0.56009  0.11499  0.43386     H
O9     0.12294   0.1719   0.4895     O
N10     0.2063  0.24928   0.4728     N
H11    0.20808  0.24233  0.52244     H
N12    0.27329  0.28585   0.4107     N
H13    0.27093  0.25843  0.44503     H
N14    0.18215  0.14616   0.5331     N
H15    0.19584  0.13504  0.57308     H
N16    0.55168   0.2338   0.5241     N
H17    0.55123  0.22428  0.47519     H
N18    0.16153   0.1678   0.6784     N
N19    0.34074  0.28539   0.7252     N
H20    0.32791  0.25326   0.7191     H
N21    0.21052  0.30447   0.4452     N
H22    0.19295  0.33042  0.45613     H
N23    0.54096   0.1568   0.2236     N
H24    0.53627  0.15024   0.2725     H
N25    0.21968   0.1659   0.7797     N
H26    0.22238  0.15834  0.73042     H
N27    0.49244   0.2518    0.218     N
H28    0.50476  0.24192  0.26022     H
O29    0.29494   0.2281   0.8965     O
N30    0.54866  0.29064   0.5456     N
H31    0.56854  0.31342    0.538     H
N32    0.48496  0.27694   0.5777     N
H33    0.48706  0.24563  0.55003     H
O34     0.4698   0.2237   0.1023     O
N35    0.26948   0.2604   0.7848     N
H36    0.25536  0.25271  0.74396     H
N37    0.59738   0.1509   0.3314     N
O38    0.58557   0.1791   0.1325     O
N39    0.28692   0.3134   0.7926     N
H40    0.27373  0.34064   0.8157     H
N41    0.42093   0.2807   0.2736     N
H42    0.43223  0.24729  0.27895     H
C43    0.41711   0.2601    0.582     C
H44    0.41928    0.242  0.53332     H
C45    0.45003  0.28441    0.616     C
O46    0.17892    0.191   0.8763     O
C47    0.44608   0.3096   0.6879     C
H48    0.46812  0.32547   0.7125     H
C49     0.3774   0.2881     0.69     C
C50    0.38136   0.2622   0.6185     C
H51    0.35939  0.24572  0.59434     H
N52    0.47651   0.3065   0.2113     N
H53    0.49091  0.33324  0.19023     H
C54    0.30935    0.289   0.3739     C
C55    0.19965   0.1459    0.458     C
H56    0.22736  0.13484  0.46505     H
C57    0.38389   0.2863   0.3067     C
C58    0.24182   0.3189    0.401     C
C59    0.15198   0.1785    0.751     C
C60    0.13324   0.1711   0.6256     C
C61    0.37713    0.262   0.3782     C
H62    0.39784  0.24408  0.40476     H
C63    0.55534    0.193   0.5789     C
C64    0.19939    0.206   0.4226     C
C65    0.34104   0.2635   0.4114     C
H66    0.33741  0.24696  0.46077     H
C67    0.62501   0.1508   0.3863     C
C68    0.66313   0.1632   0.3721     C
H69     0.6815   0.1629  0.41278     H
C70    0.55281   0.1321   0.5481     C
H71    0.52484  0.12435  0.53792     H
C72    0.41049   0.3119   0.7241     C
H73    0.40842  0.32981   0.7729     H
C74    0.09541   0.1846   0.6433     C
H75    0.07657  0.18867  0.60388     H
C76    0.31604    0.313   0.3022     C
H77     0.2952  0.33018  0.27514     H
C78    0.61037   0.1416   0.4676     C
C79    0.32294   0.3261    0.767     C
C80    0.25315   0.1638   0.8302     C
H81    0.24324  0.15317  0.88226     H
C82    0.14582   0.1628   0.5435     C
C83    0.44118   0.3209   0.2344     C
C84      0.281   0.1166   0.8064     C
H85     0.2676  0.07976  0.80791     H
H86    0.30302  0.11584  0.84182     H
H87    0.29028  0.12389  0.75401     H
C88    0.27428   0.2207   0.8398     C
C89    0.48887   0.2144   0.1597     C
C90    0.35241   0.3123   0.2693     C
H91    0.35624  0.32974  0.22056     H
C92    0.67441   0.1761   0.2982     C
H93    0.70071  0.18415  0.28667     H
C94    0.51637   0.3121   0.5777     C
C95    0.60823   0.1636   0.2607     C
C96    0.18467   0.1792   0.8078     C
C97    0.50942   0.1566   0.1683     C
H98      0.521  0.14741  0.11714     H
C99    0.11474   0.1892   0.7751     C
H100   0.10917   0.1944  0.82818     H
C101   0.08549   0.1921   0.7206     C
H102   0.05946  0.19912  0.73539     H
C103   0.57729    0.167   0.1998     C
C104   0.56608   0.0881   0.6071     C
H105   0.56077  0.04961  0.58758     H
H106   0.55208  0.09395  0.65544     H
H107   0.59391  0.09236  0.61607     H
C108   0.18191    0.103    0.403     C
H109   0.18663  0.06421  0.42206     H
H110   0.19367  0.10731  0.35203     H
H111   0.15399  0.10962  0.39933     H
C112   0.48054   0.1095   0.1862     C
H113   0.49418  0.07301   0.1905     H
H114   0.46138  0.10726  0.14477     H
H115   0.46743  0.11801  0.23487     H
C116   0.64641   0.1771    0.241     C
H117   0.65302  0.18671   0.1896     H
N118   0.37152   0.0677   0.4757     N
C119   0.42058   0.0715   0.5865     C
H120   0.43951  0.04807  0.55769     H
H121   0.40436  0.04548  0.61775     H
C122    0.2974   0.1326   0.3309     C
H123   0.28228  0.15367  0.37003     H
H124   0.31572   0.1598   0.3069     H
C125   0.32022   0.0849   0.3702     C
H126   0.30221  0.05917  0.39784     H
H127   0.33415  0.06209  0.33108     H
C128   0.34884   0.1101   0.4264     C
H129   0.33466  0.13621  0.46117     H
H130    0.3676  0.13347  0.39703     H
C131    0.3442   0.0286   0.5247     C
H132   0.32791  0.00601  0.48911     H
H133   0.36042  0.00139  0.55403     H
C134   0.39521   0.1042   0.5304     C
H135   0.37729  0.12859  0.56025     H
H136   0.41193  0.12973  0.49956     H
C137    0.3184   0.0592   0.5798     C
H138   0.30684  0.09266  0.55352     H
H139   0.33409  0.07358  0.62329     H
C140    0.2703     0.11   0.2701     C
H141   0.28505  0.08817  0.23197     H
H142   0.25722  0.14194  0.24468     H
H143   0.25098  0.08507  0.29415     H
C144    0.2547   0.0101   0.5528     C
H145   0.26623  0.99512  0.50548     H
H146   0.24086  0.04566  0.54145     H
H147   0.23652  0.98203  0.57384     H
C148     0.442   0.1129   0.6393     C
H149   0.42306  0.13715  0.66686     H
H150    0.4588  0.13814  0.60813     H
C151     0.436   0.0006   0.3138     C
C152    0.2862   0.0217   0.6109     C
H153   0.29732  0.98493  0.62797     H
H154   0.27459  0.04051  0.65647     H
C155    0.4666   0.0802   0.6974     C
H156   0.48545   0.0565  0.67003     H
H157   0.44984  0.05575  0.72881     H
H158   0.48021  0.10729   0.7307     H
C159    0.3949   0.0262   0.4284     C
H160   0.40887  0.00052  0.46415     H
H161    0.3767  0.00228  0.39846     H
C162    0.4224     0.05   0.3763     C
H163   0.44519  0.06405  0.40517     H
H164   0.41072  0.08275  0.34876     H
C165     0.415   0.9868    0.241     C
H166   0.42139  0.01535  0.20178     H
H167   0.38708  0.98714  0.25051     H
H168   0.42285   0.9489  0.22295     H
N169    0.3871   0.4456   0.5007     N
C170    0.4174     0.45   0.6348     C
H171    0.4363  0.42058  0.61858     H
H172    0.3955  0.43045  0.66026     H
C173    0.3719   0.4875   0.4401     C
H174     0.353  0.51326  0.46505     H
H175    0.3938  0.51123  0.42211     H
C176    0.3208   0.4346   0.5711     C
H177   0.32977  0.45058  0.62069     H
H178    0.3101  0.46601  0.53958     H
C179     0.403   0.4816   0.5654     C
H180   0.42454  0.50488  0.54479     H
H181   0.38247  0.50831  0.58221     H
C182    0.4503   0.4626   0.7646     C
H183   0.47168  0.43646  0.75297     H
H184   0.42901  0.44125  0.78807     H
H185   0.45931  0.49208  0.80043     H
C186    0.2597   0.4153   0.6346     C
H187   0.24394  0.44194  0.60447     H
H188   0.27134  0.43552  0.67816     H
H189   0.24334  0.38422  0.65371     H
C190    0.4156   0.4048   0.4683     C
H191   0.40282  0.38252   0.4271     H
H192   0.42331  0.37771   0.5092     H
C193     0.353   0.4606   0.3712     C
H194   0.32979  0.43873  0.38714     H
H195   0.37115  0.43421  0.34535     H
C196    0.3412   0.5099   0.3158     C
H197   0.34694  0.54871  0.32704     H
C198    0.3542    0.406   0.5293     C
H199   0.34355  0.38541  0.48428     H
H200   0.36561  0.37713  0.56406     H
C201    0.2913    0.391   0.5844     C
H202   0.30302  0.35739  0.60981     H
H203   0.28021  0.37846  0.53463     H
C204    0.4365   0.4905   0.6911     C
H205   0.41781  0.52095  0.70445     H
H206   0.45884  0.50876  0.66548     H
C207    0.3226   0.4946    0.251     C
H208   0.34158   0.4854  0.21096     H
H209   0.30623  0.52617  0.23361     H
H210   0.30653  0.46101  0.26129     H
C211    0.5144   0.4099   0.3714     C
H212   0.52676  0.38129  0.33838     H
H213   0.53247  0.42147  0.41195     H
H214    0.5073  0.44326   0.3405     H
C215    0.4512   0.4321   0.4361     C
H216   0.46409  0.45512  0.47632     H
H217   0.44411  0.45777   0.3931     H
C218    0.4789   0.3849    0.407     C
H219   0.48645  0.36016  0.45063     H
H220   0.46537  0.36099  0.36862     H
S221   0.27237  0.19468   0.6062     S
O222   0.30751  0.19288   0.6542     O
O223    0.2499  0.24732   0.6244     O
O224   0.28296  0.19491  0.52423     O
O225   0.24828  0.14429   0.6243     O
N226   0.63555   0.2084   0.8167     N
C227   0.73968   0.2507   0.8774     C
H228   0.74371  0.21666  0.91015     H
H229   0.76365  0.25684  0.84738     H
C230   0.70638   0.2384   0.8214     C
H231   0.70123  0.27268  0.78959     H
H232    0.7137  0.20676  0.78659     H
C233    0.6704   0.2225   0.8658     C
H234   0.66359  0.25459  0.90026     H
H235   0.67637  0.18908  0.89855     H
C236   0.73344   0.3016   0.9287     C
H237   0.72771  0.33518  0.89707     H
H238   0.75686  0.30862  0.95897     H
H239   0.71168   0.2941  0.96335     H
C240    0.6241   0.2593    0.766     C
H241   0.59919  0.25041  0.74045     H
H242   0.64382   0.2641  0.72536     H
C243    0.6404   0.1626   0.7629     C
H244   0.61564    0.156  0.73589     H
H245   0.65988  0.17399  0.72401     H
C246    0.6026   0.1982   0.8745     C
H247   0.59675  0.23468  0.90079     H
H248   0.61164  0.17085  0.91396     H
C249    0.6445    0.056   0.7494     C
H250    0.6164  0.05318  0.73952     H
H251   0.65762  0.06003  0.69904     H
C252    0.6525    0.111   0.7982     C
H253   0.63903  0.10723  0.84821     H
H254   0.68056  0.11347  0.80878     H
C255     0.565    0.175   0.8384     C
H256   0.56677  0.13313  0.83167     H
H257   0.56065  0.19268  0.78739     H
C258    0.5311   0.1452   0.9561     C
H259   0.53504  0.10761  0.93258     H
H260   0.50616  0.14561  0.98312     H
H261   0.55194  0.15285  0.99281     H
C262    0.6197   0.3166   0.8099     C
H263   0.63017  0.32316  0.85965     H
C264    0.6572   0.0042   0.7843     C
H265   0.66582  0.97752  0.74443     H
H266   0.63573   0.9871  0.81317     H
H267   0.67866  0.01225  0.81947     H
C268    0.6004   0.3545   0.7715     C
H269   0.61091  0.38094  0.73581     H
C270    0.5562   0.3491   0.7946     C
H271   0.54017  0.36674  0.75468     H
H272   0.55182  0.36849  0.84373     H
H273   0.54936  0.30865  0.79958     H
C274    0.5311   0.1904   0.8944     C
H275    0.5352  0.22862  0.91733     H
H276   0.50609  0.19052   0.8666     H
S277   0.48411  0.17897  0.39213     S
O278   0.47206  0.18184   0.4735     O
O279   0.44976  0.18128   0.3421     O
O280    0.5102  0.22765   0.3741     O
O281   0.50533  0.12505   0.3775     O
N282   0.38163   0.2923   0.9981     N
C283   0.34593   0.2097   0.0632     C
H284    0.3527  0.18018  0.02475     H
H285   0.32173  0.22849  0.04632     H
C286   0.38716   0.2581    0.925     C
H287   0.39001  0.28509  0.88158     H
H288   0.36335   0.2356  0.91572     H
C289   0.37813   0.2536   0.0675     C
H290   0.37394  0.27763  0.11357     H
H291   0.40299  0.23331  0.07446     H
C292    0.4224    0.183   0.8512     C
H293   0.44576  0.15848  0.85217     H
H294   0.42545  0.20985  0.80762     H
C295   0.33948   0.1816    0.141     C
H296   0.31659  0.15627  0.13775     H
H297   0.33387  0.21146  0.17965     H
C298    0.3453   0.3269   0.9869     C
H299   0.32492  0.30103   0.9671     H
H300   0.35038  0.35562  0.94631     H
C301    0.3746   0.1462   0.1682     C
H302   0.38419  0.12281  0.12551     H
H303   0.36683  0.12136   0.2108     H
H304   0.39517  0.17202  0.18551     H
C305    0.4167   0.3296   0.0138     C
H306   0.43846  0.30454    0.029     H
H307   0.41076   0.3546  0.05811     H
C308    0.4217   0.2171   0.9238     C
H309     0.446  0.23919   0.9284     H
H310   0.42005  0.19093  0.96844     H
C311    0.3289   0.3584   0.0573     C
H312   0.34844   0.3853  0.07751     H
H313   0.32271  0.33046  0.09825     H
C314    0.2918   0.3915   0.0348     C
H315   0.29885  0.42134  0.99693     H
H316   0.27373  0.36482  0.00921     H
C317    0.3879   0.1454   0.8347     C
H318   0.39562  0.11448  0.79989     H
H319   0.36748  0.16816  0.81052     H
H320   0.37827   0.1291  0.88292     H
C321    0.4535   0.4212   0.9787     C
H322   0.44982  0.45695  0.94928     H
H323   0.45203  0.42731  0.03494     H
C324    0.2711   0.4195   0.1014     C
H325   0.24933   0.4421    0.082     H
H326   0.28911  0.44461  0.12894     H
H327   0.26147   0.3901  0.13659     H
C328    0.4838   0.3866   0.9539     C
H329   0.49982   0.3672  0.99324     H
H330   0.49757  0.39737  0.90606     H
C331    0.4299   0.3669    0.947     C
H332   0.41555  0.36799  0.89708     H
loop_
_geom_bond_atom_site_label_1
_geom_bond_atom_site_label_2
_geom_bond_distance
_geom_bond_site_symmetry_2
_ccdc_geom_bond_type
H8    O281   2.14465       .     S
O281  H8     2.14465       .     S
H8    N37    2.35442       .     S
N37   H8     2.35442       .     S
H11   O223   2.29060       .     S
O223  H11    2.29060       .     S
H11   N14    2.43152       .     S
N14   H11    2.43152       .     S
H13   O224   2.06958       .     S
O224  H13    2.06958       .     S
H13   N10    2.29587       .     S
N10   H13    2.29587       .     S
H15   O225   2.03139       .     S
O225  H15    2.03139       .     S
H15   N18    2.31285       .     S
N18   H15    2.31285       .     S
H17   O280   2.26004       .     S
O280  H17    2.26004       .     S
H17   N7     2.38969       .     S
N7    H17    2.38969       .     S
H20   O222   1.94193       .     S
O222  H20    1.94193       .     S
H20   N35    2.32661       .     S
N35   H20    2.32661       .     S
H24   O281   2.19669       .     S
O281  H24    2.19669       .     S
H24   N37    2.34778       .     S
N37   H24    2.34778       .     S
H26   O225   2.07720       .     S
O225  H26    2.07720       .     S
H26   N18    2.30050       .     S
N18   H26    2.30050       .     S
H28   O280   2.01693       .     S
O280  H28    2.01693       .     S
H28   N23    2.43861       .     S
N23   H28    2.43861       .     S
H33   O278   2.06694       .     S
O278  H33    2.06694       .     S
H33   N16    2.29574       .     S
N16   H33    2.29574       .     S
H36   O223   2.09126       .     S
O223  H36    2.09126       .     S
H36   N25    2.45811       .     S
N25   H36    2.45811       .     S
H42   O279   1.99089       .     S
O279  H42    1.99089       .     S
H42   N27    2.33812       .     S
N27   H42    2.33812       .     S
S0    C79    1.68100       .     S
C79   S0     1.68100       .     S
S1    C58    1.67460       .     S
C58   S1     1.67460       .     S
S2    C94    1.68831       .     S
C94   S2     1.68831       .     S
S3    C83    1.69806       .     S
C83   S3     1.69806       .     S
O4    C63    1.22238       .     S
C63   O4     1.22238       .     S
O5    C64    1.22264       .     S
C64   O5     1.22264       .     S
O6    C78    1.24367       .     S
C78   O6     1.24367       .     S
N7    H8     0.87947       .     S
H8    N7     0.87947       .     S
N7    C70    1.46002       .     S
C70   N7     1.46002       .     S
N7    C78    1.34653       .     S
C78   N7     1.34653       .     S
O9    C82    1.24606       .     S
C82   O9     1.24606       .     S
N10   H11    0.88051       .     S
H11   N10    0.88051       .     S
N10   N21    1.38664       .     S
N21   N10    1.38664       .     S
N10   C64    1.35893       .     S
C64   N10    1.35893       .     S
N12   H13    0.88062       .     S
H13   N12    0.88062       .     S
N12   C54    1.40317       .     S
C54   N12    1.40317       .     S
N12   C58    1.34585       .     S
C58   N12    1.34585       .     S
N14   H15    0.88039       .     S
H15   N14    0.88039       .     S
N14   C55    1.43918       .     S
C55   N14    1.43918       .     S
N14   C82    1.32739       .     S
C82   N14    1.32739       .     S
N16   H17    0.87933       .     S
H17   N16    0.87933       .     S
N16   N30    1.38682       .     S
N30   N16    1.38682       .     S
N16   C63    1.35546       .     S
C63   N16    1.35546       .     S
N18   C59    1.32867       .     S
C59   N18    1.32867       .     S
N18   C60    1.34362       .     S
C60   N18    1.34362       .     S
N19   H20    0.87998       .     S
H20   N19    0.87998       .     S
N19   C49    1.40882       .     S
C49   N19    1.40882       .     S
N19   C79    1.34767       .     S
C79   N19    1.34767       .     S
N21   H22    0.88007       .     S
H22   N21    0.88007       .     S
N21   C58    1.36957       .     S
C58   N21    1.36957       .     S
N23   H24    0.87912       .     S
H24   N23    0.87912       .     S
N23   C97    1.45377       .     S
C97   N23    1.45377       .     S
N23   C103   1.34376       .     S
C103  N23    1.34376       .     S
N25   H26    0.87995       .     S
H26   N25    0.87995       .     S
N25   C80    1.45336       .     S
C80   N25    1.45336       .     S
N25   C96    1.34186       .     S
C96   N25    1.34186       .     S
N27   H28    0.87970       .     S
H28   N27    0.87970       .     S
N27   N52    1.39946       .     S
N52   N27    1.39946       .     S
N27   C89    1.34547       .     S
C89   N27    1.34547       .     S
O29   C88    1.22969       .     S
C88   O29    1.22969       .     S
N30   H31    0.88005       .     S
H31   N30    0.88005       .     S
N30   C94    1.34546       .     S
C94   N30    1.34546       .     S
N32   H33    0.88012       .     S
H33   N32    0.88012       .     S
N32   C45    1.39005       .     S
C45   N32    1.39005       .     S
N32   C94    1.36284       .     S
C94   N32    1.36284       .     S
O34   C89    1.21581       .     S
C89   O34    1.21581       .     S
N35   H36    0.88033       .     S
H36   N35    0.88033       .     S
N35   N39    1.38675       .     S
N39   N35    1.38675       .     S
N35   C88    1.34419       .     S
C88   N35    1.34419       .     S
N37   C67    1.35041       .     S
C67   N37    1.35041       .     S
N37   C95    1.31925       .     S
C95   N37    1.31925       .     S
O38   C103   1.23760       .     S
C103  O38    1.23760       .     S
N39   H40    0.88112       .     S
H40   N39    0.88112       .     S
N39   C79    1.35543       .     S
C79   N39    1.35543       .     S
N41   H42    0.87959       .     S
H42   N41    0.87959       .     S
N41   C57    1.40999       .     S
C57   N41    1.40999       .     S
N41   C83    1.35695       .     S
C83   N41    1.35695       .     S
C43   H44    0.94965       .     S
H44   C43    0.94965       .     S
C43   C45    1.40317       .     S
C45   C43    1.40317       .     S
C43   C50    1.39018       .     S
C50   C43    1.39018       .     S
C45   C47    1.38916       .     S
C47   C45    1.38916       .     S
O46   C96    1.23877       .     S
C96   O46    1.23877       .     S
C47   H48    0.94957       .     S
H48   C47    0.94957       .     S
C47   C72    1.38306       .     S
C72   C47    1.38306       .     S
C49   C50    1.39012       .     S
C50   C49    1.39012       .     S
C49   C72    1.40389       .     S
C72   C49    1.40389       .     S
C50   H51    0.94991       .     S
H51   C50    0.94991       .     S
N52   H53    0.87997       .     S
H53   N52    0.87997       .     S
N52   C83    1.32922       .     S
C83   N52    1.32922       .     S
C54   C65    1.40787       .     S
C65   C54    1.40787       .     S
C54   C76    1.38701       .     S
C76   C54    1.38701       .     S
C55   H56    0.99989       .     S
H56   C55    0.99989       .     S
C55   C64    1.53647       .     S
C64   C55    1.53647       .     S
C55   C108   1.51672       .     S
C108  C55    1.51672       .     S
C57   C61    1.38716       .     S
C61   C57    1.38716       .     S
C57   C90    1.40645       .     S
C90   C57    1.40645       .     S
C59   C96    1.50093       .     S
C96   C59    1.50093       .     S
C59   C99    1.37687       .     S
C99   C59    1.37687       .     S
C60   C74    1.38022       .     S
C74   C60    1.38022       .     S
C60   C82    1.50493       .     S
C82   C60    1.50493       .     S
C61   H62    0.94976       .     S
H62   C61    0.94976       .     S
C61   C65    1.37516       .     S
C65   C61    1.37516       .     S
C63   C70    1.52622       .     S
C70   C63    1.52622       .     S
C65   H66    0.95014       .     S
H66   C65    0.95014       .     S
C67   C68    1.37184       .     S
C68   C67    1.37184       .     S
C67   C78    1.51689       .     S
C78   C67    1.51689       .     S
C68   H69    0.95062       .     S
H69   C68    0.95062       .     S
C68   C92    1.37641       .     S
C92   C68    1.37641       .     S
C70   H71    0.99961       .     S
H71   C70    0.99961       .     S
C70   C104   1.52483       .     S
C104  C70    1.52483       .     S
C72   H73    0.94927       .     S
H73   C72    0.94927       .     S
C74   H75    0.95031       .     S
H75   C74    0.95031       .     S
C74   C101   1.39822       .     S
C101  C74    1.39822       .     S
C76   H77    0.94992       .     S
H77   C76    0.94992       .     S
C76   C90    1.38143       .     S
C90   C76    1.38143       .     S
C80   H81    0.99939       .     S
H81   C80    0.99939       .     S
C80   C84    1.52332       .     S
C84   C80    1.52332       .     S
C80   C88    1.52898       .     S
C88   C80    1.52898       .     S
C84   H85    0.97975       .     S
H85   C84    0.97975       .     S
C84   H86    0.97934       .     S
H86   C84    0.97934       .     S
C84   H87    0.98077       .     S
H87   C84    0.98077       .     S
C89   C97    1.53624       .     S
C97   C89    1.53624       .     S
C90   H91    0.95007       .     S
H91   C90    0.95007       .     S
C92   H93    0.94993       .     S
H93   C92    0.94993       .     S
C92   C116   1.38806       .     S
C116  C92    1.38806       .     S
C95   C103   1.50721       .     S
C103  C95    1.50721       .     S
C95   C116   1.39979       .     S
C116  C95    1.39979       .     S
C97   H98    0.99896       .     S
H98   C97    0.99896       .     S
C97   C112   1.52013       .     S
C112  C97    1.52013       .     S
C99   H100   0.95066       .     S
H100  C99    0.95066       .     S
C99   C101   1.38748       .     S
C101  C99    1.38748       .     S
C101  H102   0.95022       .     S
H102  C101   0.95022       .     S
C104  H105   0.98068       .     S
H105  C104   0.98068       .     S
C104  H106   0.97954       .     S
H106  C104   0.97954       .     S
C104  H107   0.97974       .     S
H107  C104   0.97974       .     S
C108  H109   0.98082       .     S
H109  C108   0.98082       .     S
C108  H110   0.98027       .     S
H110  C108   0.98027       .     S
C108  H111   0.97965       .     S
H111  C108   0.97965       .     S
C112  H113   0.97902       .     S
H113  C112   0.97902       .     S
C112  H114   0.98001       .     S
H114  C112   0.98001       .     S
C112  H115   0.98046       .     S
H115  C112   0.98046       .     S
C116  H117   0.94955       .     S
H117  C116   0.94955       .     S
N118  C128   1.52837       .     S
C128  N118   1.52837       .     S
N118  C131   1.56739       .     S
C131  N118   1.56739       .     S
N118  C134   1.51864       .     S
C134  N118   1.51864       .     S
N118  C159   1.50818       .     S
C159  N118   1.50818       .     S
C119  H120   0.99015       .     S
H120  C119   0.99015       .     S
C119  H121   0.99052       .     S
H121  C119   0.99052       .     S
C119  C134   1.51901       .     S
C134  C119   1.51901       .     S
C119  C148   1.52695       .     S
C148  C119   1.52695       .     S
C122  H123   0.98981       .     S
H123  C122   0.98981       .     S
C122  H124   0.99054       .     S
H124  C122   0.99054       .     S
C122  C125   1.52894       .     S
C125  C122   1.52894       .     S
C122  C140   1.50849       .     S
C140  C122   1.50849       .     S
C125  H126   0.99088       .     S
H126  C125   0.99088       .     S
C125  H127   0.98998       .     S
H127  C125   0.98998       .     S
C125  C128   1.51071       .     S
C128  C125   1.51071       .     S
C128  H129   0.98987       .     S
H129  C128   0.98987       .     S
C128  H130   0.99048       .     S
H130  C128   0.99048       .     S
C131  H132   0.98999       .     S
H132  C131   0.98999       .     S
C131  H133   0.99031       .     S
H133  C131   0.99031       .     S
C131  C137   1.49236       .     S
C137  C131   1.49236       .     S
C134  H135   0.98972       .     S
H135  C134   0.98972       .     S
C134  H136   0.98957       .     S
H136  C134   0.98957       .     S
C137  H138   0.99135       .     S
H138  C137   0.99135       .     S
C137  H139   0.98969       .     S
H139  C137   0.98969       .     S
C137  C152   1.51759       .     S
C152  C137   1.51759       .     S
C140  H141   0.98033       .     S
H141  C140   0.98033       .     S
C140  H142   0.97957       .     S
H142  C140   0.97957       .     S
C140  H143   0.98079       .     S
H143  C140   0.98079       .     S
C144  H145   0.97928   1_545     S
H145  C144   0.97928   1_565     S
C144  H146   0.98064       .     S
H146  C144   0.98064       .     S
C144  H147   0.98038   1_545     S
H147  C144   0.98038   1_565     S
C144  C152   1.51004       .     S
C152  C144   1.51004       .     S
C148  H149   0.99045       .     S
H149  C148   0.99045       .     S
C148  H150   0.99024       .     S
H150  C148   0.99024       .     S
C148  C155   1.52659       .     S
C155  C148   1.52659       .     S
C151  C162   1.65559       .     S
C162  C151   1.65559       .     S
C151  C165   1.49461   1_545     S
C165  C151   1.49461   1_565     S
C152  H153   0.98878   1_545     S
H153  C152   0.98878   1_565     S
C152  H154   0.99149       .     S
H154  C152   0.99149       .     S
C155  H156   0.97944       .     S
H156  C155   0.97944       .     S
C155  H157   0.98080       .     S
H157  C155   0.98080       .     S
C155  H158   0.97943       .     S
H158  C155   0.97943       .     S
C159  H160   0.99069       .     S
H160  C159   0.99069       .     S
C159  H161   0.99035       .     S
H161  C159   0.99035       .     S
C159  C162   1.42662       .     S
C162  C159   1.42662       .     S
C162  H163   0.99046       .     S
H163  C162   0.99046       .     S
C162  H164   0.99036       .     S
H164  C162   0.99036       .     S
C165  H166   0.98034   1_565     S
H166  C165   0.98034   1_545     S
C165  H167   0.97929       .     S
H167  C165   0.97929       .     S
C165  H168   0.97992       .     S
H168  C165   0.97992       .     S
N169  C173   1.53286       .     S
C173  N169   1.53286       .     S
N169  C179   1.50957       .     S
C179  N169   1.50957       .     S
N169  C190   1.48372       .     S
C190  N169   1.48372       .     S
N169  C198   1.54960       .     S
C198  N169   1.54960       .     S
C170  H171   0.99062       .     S
H171  C170   0.99062       .     S
C170  H172   0.98937       .     S
H172  C170   0.98937       .     S
C170  C179   1.50062       .     S
C179  C170   1.50062       .     S
C170  C204   1.51468       .     S
C204  C170   1.51468       .     S
C173  H174   0.98954       .     S
H174  C173   0.98954       .     S
C173  H175   0.98994       .     S
H175  C173   0.98994       .     S
C173  C193   1.50306       .     S
C193  C173   1.50306       .     S
C176  H177   0.98983       .     S
H177  C176   0.98983       .     S
C176  H178   0.98919       .     S
H178  C176   0.98919       .     S
C176  C198   1.51994       .     S
C198  C176   1.51994       .     S
C176  C201   1.46167       .     S
C201  C176   1.46167       .     S
C179  H180   0.99008       .     S
H180  C179   0.99008       .     S
C179  H181   0.99024       .     S
H181  C179   0.99024       .     S
C182  H183   0.98085       .     S
H183  C182   0.98085       .     S
C182  H184   0.97894       .     S
H184  C182   0.97894       .     S
C182  H185   0.98081       .     S
H185  C182   0.98081       .     S
C182  C204   1.51261       .     S
C204  C182   1.51261       .     S
C186  H187   0.98014       .     S
H187  C186   0.98014       .     S
C186  H188   0.97976       .     S
H188  C186   0.97976       .     S
C186  H189   0.97993       .     S
H189  C186   0.97993       .     S
C186  C201   1.50972       .     S
C201  C186   1.50972       .     S
C190  H191   0.99033       .     S
H191  C190   0.99033       .     S
C190  H192   0.98967       .     S
H192  C190   0.98967       .     S
C190  C215   1.49566       .     S
C215  C190   1.49566       .     S
C193  H194   0.99148       .     S
H194  C193   0.99148       .     S
C193  H195   0.98885       .     S
H195  C193   0.98885       .     S
C193  C196   1.55815       .     S
C196  C193   1.55815       .     S
C196  H197   0.95078       .     S
H197  C196   0.95078       .     S
C196  C207   1.34589       .     S
C207  C196   1.34589       .     S
C198  H199   0.99042       .     S
H199  C198   0.99042       .     S
C198  H200   0.98903       .     S
H200  C198   0.98903       .     S
C201  H202   0.98952       .     S
H202  C201   0.98952       .     S
C201  H203   0.99104       .     S
H203  C201   0.99104       .     S
C204  H205   0.98998       .     S
H205  C204   0.98998       .     S
C204  H206   0.98885       .     S
H206  C204   0.98885       .     S
C207  H208   0.98065       .     S
H208  C207   0.98065       .     S
C207  H209   0.97904       .     S
H209  C207   0.97904       .     S
C207  H210   0.97964       .     S
H210  C207   0.97964       .     S
C211  H212   0.98047       .     S
H212  C211   0.98047       .     S
C211  H213   0.98021       .     S
H213  C211   0.98021       .     S
C211  H214   0.97955       .     S
H214  C211   0.97955       .     S
C211  C218   1.49405       .     S
C218  C211   1.49405       .     S
C215  H216   0.98914       .     S
H216  C215   0.98914       .     S
C215  H217   0.99027       .     S
H217  C215   0.99027       .     S
C215  C218   1.54768       .     S
C218  C215   1.54768       .     S
C218  H219   0.98968       .     S
H219  C218   0.98968       .     S
C218  H220   0.98883       .     S
H220  C218   0.98883       .     S
S221  O222   1.47448       .     S
O222  S221   1.47448       .     S
S221  O223   1.49126       .     S
O223  S221   1.49126       .     S
S221  O224   1.47156       .     S
O224  S221   1.47156       .     S
S221  O225   1.47842       .     S
O225  S221   1.47842       .     S
N226  C233   1.51308       .     S
C233  N226   1.51308       .     S
N226  C240   1.53470       .     S
C240  N226   1.53470       .     S
N226  C243   1.43321       .     S
C243  N226   1.43321       .     S
N226  C246   1.53775       .     S
C246  N226   1.53775       .     S
C227  H228   0.98966       .     S
H228  C227   0.98966       .     S
C227  H229   0.98985       .     S
H229  C227   0.98985       .     S
C227  C230   1.53504       .     S
C230  C227   1.53504       .     S
C227  C236   1.50455       .     S
C236  C227   1.50455       .     S
C230  H231   0.99115       .     S
H231  C230   0.99115       .     S
C230  H232   0.98977       .     S
H232  C230   0.98977       .     S
C230  C233   1.51058       .     S
C233  C230   1.51058       .     S
C233  H234   0.98967       .     S
H234  C233   0.98967       .     S
C233  H235   0.98978       .     S
H235  C233   0.98978       .     S
C236  H237   0.98000       .     S
H237  C236   0.98000       .     S
C236  H238   0.97957       .     S
H238  C236   0.97957       .     S
C236  H239   0.97966       .     S
H239  C236   0.97966       .     S
C240  H241   0.99111       .     S
H241  C240   0.99111       .     S
C240  H242   0.98830       .     S
H242  C240   0.98830       .     S
C240  C262   1.55152       .     S
C262  C240   1.55152       .     S
C243  H244   0.98850       .     S
H244  C243   0.98850       .     S
C243  H245   0.99093       .     S
H245  C243   0.99093       .     S
C243  C252   1.41865       .     S
C252  C243   1.41865       .     S
C246  H247   0.98996       .     S
H247  C246   0.98996       .     S
C246  H248   0.98937       .     S
H248  C246   0.98937       .     S
C246  C255   1.54236       .     S
C255  C246   1.54236       .     S
C249  H250   0.98870       .     S
H250  C249   0.98870       .     S
C249  H251   0.99066       .     S
H251  C249   0.99066       .     S
C249  C252   1.56722       .     S
C252  C249   1.56722       .     S
C249  C264   1.42590       .     S
C264  C249   1.42590       .     S
C252  H253   0.99035       .     S
H253  C252   0.99035       .     S
C252  H254   0.98902       .     S
H254  C252   0.98902       .     S
C255  H256   0.98959       .     S
H256  C255   0.98959       .     S
C255  H257   0.99036       .     S
H257  C255   0.99036       .     S
C255  C274   1.56578       .     S
C274  C255   1.56578       .     S
C258  H259   0.98034       .     S
H259  C258   0.98034       .     S
C258  H260   0.98192       .     S
H260  C258   0.98192       .     S
C258  H261   0.97907       .     S
H261  C258   0.97907       .     S
C258  C274   1.50728       .     S
C274  C258   1.50728       .     S
C262  H263   0.95022       .     S
H263  C262   0.95022       .     S
C262  C268   1.29579       .     S
C268  C262   1.29579       .     S
C264  H265   0.97977   1_545     S
H265  C264   0.97977   1_565     S
C264  H266   0.98148   1_545     S
H266  C264   0.98148   1_565     S
C264  H267   0.97974       .     S
H267  C264   0.97974       .     S
C268  H269   0.94904       .     S
H269  C268   0.94904       .     S
C268  C270   1.58496       .     S
C270  C268   1.58496       .     S
C270  H271   0.97960       .     S
H271  C270   0.97960       .     S
C270  H272   0.97928       .     S
H272  C270   0.97928       .     S
C270  H273   0.98037       .     S
H273  C270   0.98037       .     S
C274  H275   0.99021       .     S
H275  C274   0.99021       .     S
C274  H276   0.99055       .     S
H276  C274   0.99055       .     S
S277  O278   1.47643       .     S
O278  S277   1.47643       .     S
S277  O279   1.47302       .     S
O279  S277   1.47302       .     S
S277  O280   1.48726       .     S
O280  S277   1.48726       .     S
S277  O281   1.48257       .     S
O281  S277   1.48257       .     S
N282  C286   1.51455       .     S
C286  N282   1.51455       .     S
N282  C289   1.51411   1_556     S
C289  N282   1.51411   1_554     S
N282  C298   1.50735       .     S
C298  N282   1.50735       .     S
N282  C305   1.51912   1_556     S
C305  N282   1.51912   1_554     S
C283  H284   0.98989       .     S
H284  C283   0.98989       .     S
C283  H285   0.98982       .     S
H285  C283   0.98982       .     S
C283  C289   1.51726       .     S
C289  C283   1.51726       .     S
C283  C295   1.52084       .     S
C295  C283   1.52084       .     S
C286  H287   0.98964       .     S
H287  C286   0.98964       .     S
C286  H288   0.99061       .     S
H288  C286   0.99061       .     S
C286  C308   1.53248       .     S
C308  C286   1.53248       .     S
C289  H290   0.98970       .     S
H290  C289   0.98970       .     S
C289  H291   0.98950       .     S
H291  C289   0.98950       .     S
C292  H293   0.99111       .     S
H293  C292   0.99111       .     S
C292  H294   0.99039       .     S
H294  C292   0.99039       .     S
C292  C308   1.49403       .     S
C308  C292   1.49403       .     S
C292  C317   1.51011       .     S
C317  C292   1.51011       .     S
C295  H296   0.99065       .     S
H296  C295   0.99065       .     S
C295  H297   0.98917       .     S
H297  C295   0.98917       .     S
C295  C301   1.54443       .     S
C301  C295   1.54443       .     S
C298  H299   0.99101       .     S
H299  C298   0.99101       .     S
C298  H300   0.99071       .     S
H300  C298   0.99071       .     S
C298  C311   1.53762   1_556     S
C311  C298   1.53762   1_554     S
C301  H302   0.98034       .     S
H302  C301   0.98034       .     S
C301  H303   0.97947       .     S
H303  C301   0.97947       .     S
C301  H304   0.98084       .     S
H304  C301   0.98084       .     S
C305  H306   0.99009       .     S
H306  C305   0.99009       .     S
C305  H307   0.98929       .     S
H307  C305   0.98929       .     S
C305  C331   1.52338   1_554     S
C331  C305   1.52338   1_556     S
C308  H309   0.98986       .     S
H309  C308   0.98986       .     S
C308  H310   0.99070       .     S
H310  C308   0.99070       .     S
C311  H312   0.98833       .     S
H312  C311   0.98833       .     S
C311  H313   0.99050       .     S
H313  C311   0.99050       .     S
C311  C314   1.54890       .     S
C314  C311   1.54890       .     S
C314  H315   0.99072   1_554     S
H315  C314   0.99072   1_556     S
C314  H316   0.98932       .     S
H316  C314   0.98932       .     S
C314  C324   1.51105       .     S
C324  C314   1.51105       .     S
C317  H318   0.98088       .     S
H318  C317   0.98088       .     S
C317  H319   0.97944       .     S
H319  C317   0.97944       .     S
C317  H320   0.97959       .     S
H320  C317   0.97959       .     S
C321  H322   0.98949       .     S
H322  C321   0.98949       .     S
C321  H323   0.98962   1_556     S
H323  C321   0.98962   1_554     S
C321  C328   1.39283       .     S
C328  C321   1.39283       .     S
C321  C331   1.60846       .     S
C331  C321   1.60846       .     S
C324  H325   0.98001       .     S
H325  C324   0.98001       .     S
C324  H326   0.98127       .     S
H326  C324   0.98127       .     S
C324  H327   0.97952       .     S
H327  C324   0.97952       .     S
C328  H329   0.99051       .     S
H329  C328   0.99051       .     S
C328  H330   0.99106       .     S
H330  C328   0.99106       .     S
C331  H332   1.00009       .     S
H332  C331   1.00009       .     S
O281  H8     2.14465       .     S
H8    O281   2.14465       .     S
N37   H8     2.35442       .     S
H8    N37    2.35442       .     S
O223  H11    2.29060       .     S
H11   O223   2.29060       .     S
N14   H11    2.43152       .     S
H11   N14    2.43152       .     S
O224  H13    2.06958       .     S
H13   O224   2.06958       .     S
N10   H13    2.29587       .     S
H13   N10    2.29587       .     S
O225  H15    2.03139       .     S
H15   O225   2.03139       .     S
N18   H15    2.31285       .     S
H15   N18    2.31285       .     S
O280  H17    2.26004       .     S
H17   O280   2.26004       .     S
N7    H17    2.38969       .     S
H17   N7     2.38969       .     S
O222  H20    1.94193       .     S
H20   O222   1.94193       .     S
N35   H20    2.32661       .     S
H20   N35    2.32661       .     S
O281  H24    2.19669       .     S
H24   O281   2.19669       .     S
N37   H24    2.34778       .     S
H24   N37    2.34778       .     S
O225  H26    2.07720       .     S
H26   O225   2.07720       .     S
N18   H26    2.30050       .     S
H26   N18    2.30050       .     S
O280  H28    2.01693       .     S
H28   O280   2.01693       .     S
N23   H28    2.43861       .     S
H28   N23    2.43861       .     S
O278  H33    2.06694       .     S
H33   O278   2.06694       .     S
N16   H33    2.29574       .     S
H33   N16    2.29574       .     S
O223  H36    2.09126       .     S
H36   O223   2.09126       .     S
N25   H36    2.45811       .     S
H36   N25    2.45811       .     S
O279  H42    1.99089       .     S
H42   O279   1.99089       .     S
N27   H42    2.33812       .     S
H42   N27    2.33812       .     S
C79   S0     1.68100       .     S
S0    C79    1.68100       .     S
C58   S1     1.67460       .     S
S1    C58    1.67460       .     S
C94   S2     1.68831       .     S
S2    C94    1.68831       .     S
C83   S3     1.69806       .     S
S3    C83    1.69806       .     S
C63   O4     1.22238       .     S
O4    C63    1.22238       .     S
C64   O5     1.22264       .     S
O5    C64    1.22264       .     S
C78   O6     1.24367       .     S
O6    C78    1.24367       .     S
H8    N7     0.87947       .     S
N7    H8     0.87947       .     S
C70   N7     1.46002       .     S
N7    C70    1.46002       .     S
C78   N7     1.34653       .     S
N7    C78    1.34653       .     S
C82   O9     1.24606       .     S
O9    C82    1.24606       .     S
H11   N10    0.88051       .     S
N10   H11    0.88051       .     S
N21   N10    1.38664       .     S
N10   N21    1.38664       .     S
C64   N10    1.35893       .     S
N10   C64    1.35893       .     S
H13   N12    0.88062       .     S
N12   H13    0.88062       .     S
C54   N12    1.40317       .     S
N12   C54    1.40317       .     S
C58   N12    1.34585       .     S
N12   C58    1.34585       .     S
H15   N14    0.88039       .     S
N14   H15    0.88039       .     S
C55   N14    1.43918       .     S
N14   C55    1.43918       .     S
C82   N14    1.32739       .     S
N14   C82    1.32739       .     S
H17   N16    0.87933       .     S
N16   H17    0.87933       .     S
N30   N16    1.38682       .     S
N16   N30    1.38682       .     S
C63   N16    1.35546       .     S
N16   C63    1.35546       .     S
C59   N18    1.32867       .     S
N18   C59    1.32867       .     S
C60   N18    1.34362       .     S
N18   C60    1.34362       .     S
H20   N19    0.87998       .     S
N19   H20    0.87998       .     S
C49   N19    1.40882       .     S
N19   C49    1.40882       .     S
C79   N19    1.34767       .     S
N19   C79    1.34767       .     S
H22   N21    0.88007       .     S
N21   H22    0.88007       .     S
C58   N21    1.36957       .     S
N21   C58    1.36957       .     S
H24   N23    0.87912       .     S
N23   H24    0.87912       .     S
C97   N23    1.45377       .     S
N23   C97    1.45377       .     S
C103  N23    1.34376       .     S
N23   C103   1.34376       .     S
H26   N25    0.87995       .     S
N25   H26    0.87995       .     S
C80   N25    1.45336       .     S
N25   C80    1.45336       .     S
C96   N25    1.34186       .     S
N25   C96    1.34186       .     S
H28   N27    0.87970       .     S
N27   H28    0.87970       .     S
N52   N27    1.39946       .     S
N27   N52    1.39946       .     S
C89   N27    1.34547       .     S
N27   C89    1.34547       .     S
C88   O29    1.22969       .     S
O29   C88    1.22969       .     S
H31   N30    0.88005       .     S
N30   H31    0.88005       .     S
C94   N30    1.34546       .     S
N30   C94    1.34546       .     S
H33   N32    0.88012       .     S
N32   H33    0.88012       .     S
C45   N32    1.39005       .     S
N32   C45    1.39005       .     S
C94   N32    1.36284       .     S
N32   C94    1.36284       .     S
C89   O34    1.21581       .     S
O34   C89    1.21581       .     S
H36   N35    0.88033       .     S
N35   H36    0.88033       .     S
N39   N35    1.38675       .     S
N35   N39    1.38675       .     S
C88   N35    1.34419       .     S
N35   C88    1.34419       .     S
C67   N37    1.35041       .     S
N37   C67    1.35041       .     S
C95   N37    1.31925       .     S
N37   C95    1.31925       .     S
C103  O38    1.23760       .     S
O38   C103   1.23760       .     S
H40   N39    0.88112       .     S
N39   H40    0.88112       .     S
C79   N39    1.35543       .     S
N39   C79    1.35543       .     S
H42   N41    0.87959       .     S
N41   H42    0.87959       .     S
C57   N41    1.40999       .     S
N41   C57    1.40999       .     S
C83   N41    1.35695       .     S
N41   C83    1.35695       .     S
H44   C43    0.94965       .     S
C43   H44    0.94965       .     S
C45   C43    1.40317       .     S
C43   C45    1.40317       .     S
C50   C43    1.39018       .     S
C43   C50    1.39018       .     S
C47   C45    1.38916       .     S
C45   C47    1.38916       .     S
C96   O46    1.23877       .     S
O46   C96    1.23877       .     S
H48   C47    0.94957       .     S
C47   H48    0.94957       .     S
C72   C47    1.38306       .     S
C47   C72    1.38306       .     S
C50   C49    1.39012       .     S
C49   C50    1.39012       .     S
C72   C49    1.40389       .     S
C49   C72    1.40389       .     S
H51   C50    0.94991       .     S
C50   H51    0.94991       .     S
H53   N52    0.87997       .     S
N52   H53    0.87997       .     S
C83   N52    1.32922       .     S
N52   C83    1.32922       .     S
C65   C54    1.40787       .     S
C54   C65    1.40787       .     S
C76   C54    1.38701       .     S
C54   C76    1.38701       .     S
H56   C55    0.99989       .     S
C55   H56    0.99989       .     S
C64   C55    1.53647       .     S
C55   C64    1.53647       .     S
C108  C55    1.51672       .     S
C55   C108   1.51672       .     S
C61   C57    1.38716       .     S
C57   C61    1.38716       .     S
C90   C57    1.40645       .     S
C57   C90    1.40645       .     S
C96   C59    1.50093       .     S
C59   C96    1.50093       .     S
C99   C59    1.37687       .     S
C59   C99    1.37687       .     S
C74   C60    1.38022       .     S
C60   C74    1.38022       .     S
C82   C60    1.50493       .     S
C60   C82    1.50493       .     S
H62   C61    0.94976       .     S
C61   H62    0.94976       .     S
C65   C61    1.37516       .     S
C61   C65    1.37516       .     S
C70   C63    1.52622       .     S
C63   C70    1.52622       .     S
H66   C65    0.95014       .     S
C65   H66    0.95014       .     S
C68   C67    1.37184       .     S
C67   C68    1.37184       .     S
C78   C67    1.51689       .     S
C67   C78    1.51689       .     S
H69   C68    0.95062       .     S
C68   H69    0.95062       .     S
C92   C68    1.37641       .     S
C68   C92    1.37641       .     S
H71   C70    0.99961       .     S
C70   H71    0.99961       .     S
C104  C70    1.52483       .     S
C70   C104   1.52483       .     S
H73   C72    0.94927       .     S
C72   H73    0.94927       .     S
H75   C74    0.95031       .     S
C74   H75    0.95031       .     S
C101  C74    1.39822       .     S
C74   C101   1.39822       .     S
H77   C76    0.94992       .     S
C76   H77    0.94992       .     S
C90   C76    1.38143       .     S
C76   C90    1.38143       .     S
H81   C80    0.99939       .     S
C80   H81    0.99939       .     S
C84   C80    1.52332       .     S
C80   C84    1.52332       .     S
C88   C80    1.52898       .     S
C80   C88    1.52898       .     S
H85   C84    0.97975       .     S
C84   H85    0.97975       .     S
H86   C84    0.97934       .     S
C84   H86    0.97934       .     S
H87   C84    0.98077       .     S
C84   H87    0.98077       .     S
C97   C89    1.53624       .     S
C89   C97    1.53624       .     S
H91   C90    0.95007       .     S
C90   H91    0.95007       .     S
H93   C92    0.94993       .     S
C92   H93    0.94993       .     S
C116  C92    1.38806       .     S
C92   C116   1.38806       .     S
C103  C95    1.50721       .     S
C95   C103   1.50721       .     S
C116  C95    1.39979       .     S
C95   C116   1.39979       .     S
H98   C97    0.99896       .     S
C97   H98    0.99896       .     S
C112  C97    1.52013       .     S
C97   C112   1.52013       .     S
H100  C99    0.95066       .     S
C99   H100   0.95066       .     S
C101  C99    1.38748       .     S
C99   C101   1.38748       .     S
H102  C101   0.95022       .     S
C101  H102   0.95022       .     S
H105  C104   0.98068       .     S
C104  H105   0.98068       .     S
H106  C104   0.97954       .     S
C104  H106   0.97954       .     S
H107  C104   0.97974       .     S
C104  H107   0.97974       .     S
H109  C108   0.98082       .     S
C108  H109   0.98082       .     S
H110  C108   0.98027       .     S
C108  H110   0.98027       .     S
H111  C108   0.97965       .     S
C108  H111   0.97965       .     S
H113  C112   0.97902       .     S
C112  H113   0.97902       .     S
H114  C112   0.98001       .     S
C112  H114   0.98001       .     S
H115  C112   0.98046       .     S
C112  H115   0.98046       .     S
H117  C116   0.94955       .     S
C116  H117   0.94955       .     S
C128  N118   1.52837       .     S
N118  C128   1.52837       .     S
C131  N118   1.56739       .     S
N118  C131   1.56739       .     S
C134  N118   1.51864       .     S
N118  C134   1.51864       .     S
C159  N118   1.50818       .     S
N118  C159   1.50818       .     S
H120  C119   0.99015       .     S
C119  H120   0.99015       .     S
H121  C119   0.99052       .     S
C119  H121   0.99052       .     S
C134  C119   1.51901       .     S
C119  C134   1.51901       .     S
C148  C119   1.52695       .     S
C119  C148   1.52695       .     S
H123  C122   0.98981       .     S
C122  H123   0.98981       .     S
H124  C122   0.99054       .     S
C122  H124   0.99054       .     S
C125  C122   1.52894       .     S
C122  C125   1.52894       .     S
C140  C122   1.50849       .     S
C122  C140   1.50849       .     S
H126  C125   0.99088       .     S
C125  H126   0.99088       .     S
H127  C125   0.98998       .     S
C125  H127   0.98998       .     S
C128  C125   1.51071       .     S
C125  C128   1.51071       .     S
H129  C128   0.98987       .     S
C128  H129   0.98987       .     S
H130  C128   0.99048       .     S
C128  H130   0.99048       .     S
H132  C131   0.98999       .     S
C131  H132   0.98999       .     S
H133  C131   0.99031       .     S
C131  H133   0.99031       .     S
C137  C131   1.49236       .     S
C131  C137   1.49236       .     S
H135  C134   0.98972       .     S
C134  H135   0.98972       .     S
H136  C134   0.98957       .     S
C134  H136   0.98957       .     S
H138  C137   0.99135       .     S
C137  H138   0.99135       .     S
H139  C137   0.98969       .     S
C137  H139   0.98969       .     S
C152  C137   1.51759       .     S
C137  C152   1.51759       .     S
H141  C140   0.98033       .     S
C140  H141   0.98033       .     S
H142  C140   0.97957       .     S
C140  H142   0.97957       .     S
H143  C140   0.98079       .     S
C140  H143   0.98079       .     S
H145  C144   0.97928   1_565     S
C144  H145   0.97928   1_545     S
H146  C144   0.98064       .     S
C144  H146   0.98064       .     S
H147  C144   0.98038   1_565     S
C144  H147   0.98038   1_545     S
C152  C144   1.51004       .     S
C144  C152   1.51004       .     S
H149  C148   0.99045       .     S
C148  H149   0.99045       .     S
H150  C148   0.99024       .     S
C148  H150   0.99024       .     S
C155  C148   1.52659       .     S
C148  C155   1.52659       .     S
C162  C151   1.65559       .     S
C151  C162   1.65559       .     S
C165  C151   1.49461   1_565     S
C151  C165   1.49461   1_545     S
H153  C152   0.98878   1_565     S
C152  H153   0.98878   1_545     S
H154  C152   0.99149       .     S
C152  H154   0.99149       .     S
H156  C155   0.97944       .     S
C155  H156   0.97944       .     S
H157  C155   0.98080       .     S
C155  H157   0.98080       .     S
H158  C155   0.97943       .     S
C155  H158   0.97943       .     S
H160  C159   0.99069       .     S
C159  H160   0.99069       .     S
H161  C159   0.99035       .     S
C159  H161   0.99035       .     S
C162  C159   1.42662       .     S
C159  C162   1.42662       .     S
H163  C162   0.99046       .     S
C162  H163   0.99046       .     S
H164  C162   0.99036       .     S
C162  H164   0.99036       .     S
H166  C165   0.98034   1_545     S
C165  H166   0.98034   1_565     S
H167  C165   0.97929       .     S
C165  H167   0.97929       .     S
H168  C165   0.97992       .     S
C165  H168   0.97992       .     S
C173  N169   1.53286       .     S
N169  C173   1.53286       .     S
C179  N169   1.50957       .     S
N169  C179   1.50957       .     S
C190  N169   1.48372       .     S
N169  C190   1.48372       .     S
C198  N169   1.54960       .     S
N169  C198   1.54960       .     S
H171  C170   0.99062       .     S
C170  H171   0.99062       .     S
H172  C170   0.98937       .     S
C170  H172   0.98937       .     S
C179  C170   1.50062       .     S
C170  C179   1.50062       .     S
C204  C170   1.51468       .     S
C170  C204   1.51468       .     S
H174  C173   0.98954       .     S
C173  H174   0.98954       .     S
H175  C173   0.98994       .     S
C173  H175   0.98994       .     S
C193  C173   1.50306       .     S
C173  C193   1.50306       .     S
H177  C176   0.98983       .     S
C176  H177   0.98983       .     S
H178  C176   0.98919       .     S
C176  H178   0.98919       .     S
C198  C176   1.51994       .     S
C176  C198   1.51994       .     S
C201  C176   1.46167       .     S
C176  C201   1.46167       .     S
H180  C179   0.99008       .     S
C179  H180   0.99008       .     S
H181  C179   0.99024       .     S
C179  H181   0.99024       .     S
H183  C182   0.98085       .     S
C182  H183   0.98085       .     S
H184  C182   0.97894       .     S
C182  H184   0.97894       .     S
H185  C182   0.98081       .     S
C182  H185   0.98081       .     S
C204  C182   1.51261       .     S
C182  C204   1.51261       .     S
H187  C186   0.98014       .     S
C186  H187   0.98014       .     S
H188  C186   0.97976       .     S
C186  H188   0.97976       .     S
H189  C186   0.97993       .     S
C186  H189   0.97993       .     S
C201  C186   1.50972       .     S
C186  C201   1.50972       .     S
H191  C190   0.99033       .     S
C190  H191   0.99033       .     S
H192  C190   0.98967       .     S
C190  H192   0.98967       .     S
C215  C190   1.49566       .     S
C190  C215   1.49566       .     S
H194  C193   0.99148       .     S
C193  H194   0.99148       .     S
H195  C193   0.98885       .     S
C193  H195   0.98885       .     S
C196  C193   1.55815       .     S
C193  C196   1.55815       .     S
H197  C196   0.95078       .     S
C196  H197   0.95078       .     S
C207  C196   1.34589       .     S
C196  C207   1.34589       .     S
H199  C198   0.99042       .     S
C198  H199   0.99042       .     S
H200  C198   0.98903       .     S
C198  H200   0.98903       .     S
H202  C201   0.98952       .     S
C201  H202   0.98952       .     S
H203  C201   0.99104       .     S
C201  H203   0.99104       .     S
H205  C204   0.98998       .     S
C204  H205   0.98998       .     S
H206  C204   0.98885       .     S
C204  H206   0.98885       .     S
H208  C207   0.98065       .     S
C207  H208   0.98065       .     S
H209  C207   0.97904       .     S
C207  H209   0.97904       .     S
H210  C207   0.97964       .     S
C207  H210   0.97964       .     S
H212  C211   0.98047       .     S
C211  H212   0.98047       .     S
H213  C211   0.98021       .     S
C211  H213   0.98021       .     S
H214  C211   0.97955       .     S
C211  H214   0.97955       .     S
C218  C211   1.49405       .     S
C211  C218   1.49405       .     S
H216  C215   0.98914       .     S
C215  H216   0.98914       .     S
H217  C215   0.99027       .     S
C215  H217   0.99027       .     S
C218  C215   1.54768       .     S
C215  C218   1.54768       .     S
H219  C218   0.98968       .     S
C218  H219   0.98968       .     S
H220  C218   0.98883       .     S
C218  H220   0.98883       .     S
O222  S221   1.47448       .     S
S221  O222   1.47448       .     S
O223  S221   1.49126       .     S
S221  O223   1.49126       .     S
O224  S221   1.47156       .     S
S221  O224   1.47156       .     S
O225  S221   1.47842       .     S
S221  O225   1.47842       .     S
C233  N226   1.51308       .     S
N226  C233   1.51308       .     S
C240  N226   1.53470       .     S
N226  C240   1.53470       .     S
C243  N226   1.43321       .     S
N226  C243   1.43321       .     S
C246  N226   1.53775       .     S
N226  C246   1.53775       .     S
H228  C227   0.98966       .     S
C227  H228   0.98966       .     S
H229  C227   0.98985       .     S
C227  H229   0.98985       .     S
C230  C227   1.53504       .     S
C227  C230   1.53504       .     S
C236  C227   1.50455       .     S
C227  C236   1.50455       .     S
H231  C230   0.99115       .     S
C230  H231   0.99115       .     S
H232  C230   0.98977       .     S
C230  H232   0.98977       .     S
C233  C230   1.51058       .     S
C230  C233   1.51058       .     S
H234  C233   0.98967       .     S
C233  H234   0.98967       .     S
H235  C233   0.98978       .     S
C233  H235   0.98978       .     S
H237  C236   0.98000       .     S
C236  H237   0.98000       .     S
H238  C236   0.97957       .     S
C236  H238   0.97957       .     S
H239  C236   0.97966       .     S
C236  H239   0.97966       .     S
H241  C240   0.99111       .     S
C240  H241   0.99111       .     S
H242  C240   0.98830       .     S
C240  H242   0.98830       .     S
C262  C240   1.55152       .     S
C240  C262   1.55152       .     S
H244  C243   0.98850       .     S
C243  H244   0.98850       .     S
H245  C243   0.99093       .     S
C243  H245   0.99093       .     S
C252  C243   1.41865       .     S
C243  C252   1.41865       .     S
H247  C246   0.98996       .     S
C246  H247   0.98996       .     S
H248  C246   0.98937       .     S
C246  H248   0.98937       .     S
C255  C246   1.54236       .     S
C246  C255   1.54236       .     S
H250  C249   0.98870       .     S
C249  H250   0.98870       .     S
H251  C249   0.99066       .     S
C249  H251   0.99066       .     S
C252  C249   1.56722       .     S
C249  C252   1.56722       .     S
C264  C249   1.42590       .     S
C249  C264   1.42590       .     S
H253  C252   0.99035       .     S
C252  H253   0.99035       .     S
H254  C252   0.98902       .     S
C252  H254   0.98902       .     S
H256  C255   0.98959       .     S
C255  H256   0.98959       .     S
H257  C255   0.99036       .     S
C255  H257   0.99036       .     S
C274  C255   1.56578       .     S
C255  C274   1.56578       .     S
H259  C258   0.98034       .     S
C258  H259   0.98034       .     S
H260  C258   0.98192       .     S
C258  H260   0.98192       .     S
H261  C258   0.97907       .     S
C258  H261   0.97907       .     S
C274  C258   1.50728       .     S
C258  C274   1.50728       .     S
H263  C262   0.95022       .     S
C262  H263   0.95022       .     S
C268  C262   1.29579       .     S
C262  C268   1.29579       .     S
H265  C264   0.97977   1_565     S
C264  H265   0.97977   1_545     S
H266  C264   0.98148   1_565     S
C264  H266   0.98148   1_545     S
H267  C264   0.97974       .     S
C264  H267   0.97974       .     S
H269  C268   0.94904       .     S
C268  H269   0.94904       .     S
C270  C268   1.58496       .     S
C268  C270   1.58496       .     S
H271  C270   0.97960       .     S
C270  H271   0.97960       .     S
H272  C270   0.97928       .     S
C270  H272   0.97928       .     S
H273  C270   0.98037       .     S
C270  H273   0.98037       .     S
H275  C274   0.99021       .     S
C274  H275   0.99021       .     S
H276  C274   0.99055       .     S
C274  H276   0.99055       .     S
O278  S277   1.47643       .     S
S277  O278   1.47643       .     S
O279  S277   1.47302       .     S
S277  O279   1.47302       .     S
O280  S277   1.48726       .     S
S277  O280   1.48726       .     S
O281  S277   1.48257       .     S
S277  O281   1.48257       .     S
C286  N282   1.51455       .     S
N282  C286   1.51455       .     S
C289  N282   1.51411   1_554     S
N282  C289   1.51411   1_556     S
C298  N282   1.50735       .     S
N282  C298   1.50735       .     S
C305  N282   1.51912   1_554     S
N282  C305   1.51912   1_556     S
H284  C283   0.98989       .     S
C283  H284   0.98989       .     S
H285  C283   0.98982       .     S
C283  H285   0.98982       .     S
C289  C283   1.51726       .     S
C283  C289   1.51726       .     S
C295  C283   1.52084       .     S
C283  C295   1.52084       .     S
H287  C286   0.98964       .     S
C286  H287   0.98964       .     S
H288  C286   0.99061       .     S
C286  H288   0.99061       .     S
C308  C286   1.53248       .     S
C286  C308   1.53248       .     S
H290  C289   0.98970       .     S
C289  H290   0.98970       .     S
H291  C289   0.98950       .     S
C289  H291   0.98950       .     S
H293  C292   0.99111       .     S
C292  H293   0.99111       .     S
H294  C292   0.99039       .     S
C292  H294   0.99039       .     S
C308  C292   1.49403       .     S
C292  C308   1.49403       .     S
C317  C292   1.51011       .     S
C292  C317   1.51011       .     S
H296  C295   0.99065       .     S
C295  H296   0.99065       .     S
H297  C295   0.98917       .     S
C295  H297   0.98917       .     S
C301  C295   1.54443       .     S
C295  C301   1.54443       .     S
H299  C298   0.99101       .     S
C298  H299   0.99101       .     S
H300  C298   0.99071       .     S
C298  H300   0.99071       .     S
C311  C298   1.53762   1_554     S
C298  C311   1.53762   1_556     S
H302  C301   0.98034       .     S
C301  H302   0.98034       .     S
H303  C301   0.97947       .     S
C301  H303   0.97947       .     S
H304  C301   0.98084       .     S
C301  H304   0.98084       .     S
H306  C305   0.99009       .     S
C305  H306   0.99009       .     S
H307  C305   0.98929       .     S
C305  H307   0.98929       .     S
C331  C305   1.52338   1_556     S
C305  C331   1.52338   1_554     S
H309  C308   0.98986       .     S
C308  H309   0.98986       .     S
H310  C308   0.99070       .     S
C308  H310   0.99070       .     S
H312  C311   0.98833       .     S
C311  H312   0.98833       .     S
H313  C311   0.99050       .     S
C311  H313   0.99050       .     S
C314  C311   1.54890       .     S
C311  C314   1.54890       .     S
H315  C314   0.99072   1_556     S
C314  H315   0.99072   1_554     S
H316  C314   0.98932       .     S
C314  H316   0.98932       .     S
C324  C314   1.51105       .     S
C314  C324   1.51105       .     S
H318  C317   0.98088       .     S
C317  H318   0.98088       .     S
H319  C317   0.97944       .     S
C317  H319   0.97944       .     S
H320  C317   0.97959       .     S
C317  H320   0.97959       .     S
H322  C321   0.98949       .     S
C321  H322   0.98949       .     S
H323  C321   0.98962   1_554     S
C321  H323   0.98962   1_556     S
C328  C321   1.39283       .     S
C321  C328   1.39283       .     S
C331  C321   1.60846       .     S
C321  C331   1.60846       .     S
H325  C324   0.98001       .     S
C324  H325   0.98001       .     S
H326  C324   0.98127       .     S
C324  H326   0.98127       .     S
H327  C324   0.97952       .     S
C324  H327   0.97952       .     S
H329  C328   0.99051       .     S
C328  H329   0.99051       .     S
H330  C328   0.99106       .     S
C328  H330   0.99106       .     S
H332  C331   1.00009       .     S
C331  H332   1.00009       .     S
