data_I
_chemical_name_common  '/data/user2/wty/HOF/MOFDiff/mofdiff/data/test/224tam-bdca-ho'
_cell_length_a 30.70060
_cell_length_b 30.70060
_cell_length_c  7.66100
_cell_angle_alpha 90.00000
_cell_angle_beta  90.00000
_cell_angle_gamma 90.00000
_space_group_name_H-M_alt      'P 1'


loop_
_space_group_symop_operation_xyz
  'x, y, z' 

loop_
_atom_site_label
_atom_site_fract_x
_atom_site_fract_y
_atom_site_fract_z
_atom_site_type_symbol
H0     0.55303  0.02777  0.99791     H
C1     0.59383  0.91448  0.14483     C
H2     0.60565  0.88277  0.18532     H
C3      0.5838  0.94568   0.2686     C
H4     0.58723  0.93791  0.40597     H
C5     0.56852  0.98675  0.21785     C
C6      0.5639  0.99578  0.03952     C
O7     0.59101  0.89446   0.6798     O
C8     0.59772  0.89004  0.83466     C
H9      0.6113  0.85929   0.8879     H
C10    0.58861  0.92333  0.96692     C
C11    0.57379  0.96457  0.91611     C
H12    0.57064   0.9716  0.77804     H
C13    0.55707  0.01981    0.349     C
C14    0.58066  0.02375  0.50457     C
H15    0.60899  0.00338  0.52648     H
C16    0.56888  0.05421  0.62863     C
H17    0.58765  0.05767  0.74775     H
C18    0.53289  0.08146  0.60215     C
C19    0.50996  0.07827  0.44482     C
H20    0.48232  0.09941  0.42084     H
C21    0.52204  0.04805  0.32034     C
H22     0.5037   0.0459  0.19986     H
C23    0.52004  0.11337  0.73226     C
H24    0.49552  0.13704  0.68974     H
N25    0.53732  0.11359  0.88477     N
N26    0.63641  0.28732  0.86523     N
N27    0.36359  0.21268  0.86523     N
C28     0.4741  0.35434  0.00629     C
C29     0.5259  0.14566  0.00629     C
C30    0.60434   0.2759  0.74371     C
C31    0.39566   0.2241  0.74371     C
C32    0.44426  0.34551   0.1392     C
C33    0.55574  0.15449   0.1392     C
C34    0.59551  0.30574   0.6108     C
C35    0.40449  0.19426   0.6108     C
H36    0.41442  0.36425   0.1471     H
H37    0.58558  0.13575   0.1471     H
H38    0.61425  0.33558   0.6029     H
H39    0.38575  0.16442   0.6029     H
C40    0.45191   0.3126  0.25923     C
C41    0.54809   0.1874  0.25923     C
C42     0.5626  0.29809  0.49077     C
C43     0.4374  0.20191  0.49077     C
H44    0.42727  0.30605  0.35684     H
H45    0.57273  0.19395  0.35684     H
H46    0.55605  0.32273  0.39316     H
H47    0.44395  0.17727  0.39316     H
C48    0.49016  0.28831  0.25315     C
C49    0.50984  0.21169  0.25315     C
C50    0.53831  0.25984  0.49685     C
C51    0.46169  0.24016  0.49685     C
C52    0.52055  0.29825  0.12316     C
C53    0.47945  0.20175  0.12316     C
C54    0.54825  0.22945  0.62684     C
C55    0.45175  0.27055  0.62684     C
H56    0.55056  0.27972  0.11549     H
H57    0.44944  0.22028  0.11549     H
H58    0.52972  0.19944  0.63451     H
H59    0.47028  0.30056  0.63451     H
C60    0.51306  0.33069  0.00178     C
C61    0.48694  0.16931  0.00178     C
C62    0.58069  0.23694  0.74822     C
C63    0.41931  0.26306  0.74822     C
H64    0.58742  0.21226   0.8456     H
H65    0.41258  0.28774   0.8456     H
C66        0.5     0.25    0.375     C
H67    0.46226  0.16258   0.9044     H
H68    0.53774  0.33742   0.9044     H
C69    0.40617  0.58552  0.14483     C
H70    0.39435  0.61723  0.18532     H
C71     0.4162  0.55432   0.2686     C
H72    0.41277  0.56209  0.40597     H
C73    0.43148  0.51325  0.21785     C
C74     0.4361  0.50422  0.03952     C
C75    0.44293  0.48019    0.349     C
C76    0.41934  0.47625  0.50457     C
H77    0.39101  0.49662  0.52648     H
C78    0.43112  0.44579  0.62863     C
H79    0.41235  0.44233  0.74775     H
C80    0.46711  0.41854  0.60215     C
C81    0.49004  0.42173  0.44482     C
H82    0.51768  0.40059  0.42084     H
C83    0.47796  0.45195  0.32034     C
H84     0.4963   0.4541  0.19986     H
C85    0.47996  0.38663  0.73226     C
H86    0.50448  0.36296  0.68974     H
N87    0.46268  0.38641  0.88477     N
O88    0.40899  0.60554   0.6798     O
C89    0.40228  0.60996  0.83466     C
H90     0.3887  0.64071   0.8879     H
C91    0.41139  0.57667  0.96692     C
C92    0.42621  0.53543  0.91611     C
H93    0.42936   0.5284  0.77804     H
H94    0.44697  0.47223  0.99791     H
C95    0.14004  0.15228  0.91534     C
H96    0.10929   0.1387   0.8621     H
C97    0.17333  0.16139  0.78308     C
C98    0.16448  0.15617  0.60517     C
H99    0.13277  0.14435  0.56468     H
C100   0.19568   0.1662   0.4814     C
H101   0.18791  0.16277  0.34403     H
C102   0.23675  0.18148  0.53215     C
C103   0.24578   0.1861  0.71048     C
H104   0.27777  0.19697  0.75209     H
C105   0.21457  0.17621  0.83389     C
H106    0.2216  0.17936  0.97196     H
C107   0.26981  0.19293    0.401     C
C108   0.27375  0.16934  0.24543     C
H109   0.25338  0.14101  0.22352     H
C110   0.30421  0.18112  0.12137     C
H111   0.30767  0.16235  0.00225     H
C112   0.33146  0.21711  0.14785     C
C113   0.32827  0.24004  0.30518     C
H114   0.34941  0.26768  0.32916     H
C115   0.29805  0.22796  0.42966     C
H116    0.2959   0.2463  0.55014     H
C117   0.36337  0.22996  0.01774     C
H118   0.38704  0.25448  0.06026     H
O119   0.14446  0.15899   0.0702     O
C120   0.85996  0.34772  0.91534     C
H121   0.89071   0.3613   0.8621     H
C122   0.82667  0.33861  0.78308     C
C123   0.83552  0.34383  0.60517     C
H124   0.86723  0.35565  0.56468     H
C125   0.80432   0.3338   0.4814     C
H126   0.81209  0.33723  0.34403     H
C127   0.76325  0.31852  0.53215     C
C128   0.75422   0.3139  0.71048     C
H129   0.72223  0.30303  0.75209     H
C130   0.78543  0.32379  0.83389     C
H131    0.7784  0.32064  0.97196     H
C132   0.73019  0.30707    0.401     C
C133   0.72625  0.33066  0.24543     C
H134   0.74662  0.35899  0.22352     H
C135   0.69579  0.31888  0.12137     C
H136   0.69233  0.33765  0.00225     H
C137   0.66854  0.28289  0.14785     C
C138   0.67173  0.25996  0.30518     C
H139   0.65059  0.23232  0.32916     H
C140   0.70195  0.27204  0.42966     C
H141    0.7041   0.2537  0.55014     H
C142   0.63663  0.27004  0.01774     C
H143   0.61296  0.24552  0.06026     H
O144   0.85554  0.34101   0.0702     O
C145   0.59383  0.41448  0.85517     C
H146   0.60565  0.38277  0.81468     H
C147    0.5838  0.44568   0.7314     C
H148   0.58723  0.43791  0.59403     H
C149   0.56852  0.48675  0.78215     C
C150    0.5639  0.49578  0.96048     C
C151   0.55707  0.51981    0.651     C
C152   0.58066  0.52375  0.49543     C
H153   0.60899  0.50338  0.47352     H
C154   0.56888  0.55421  0.37137     C
H155   0.58765  0.55767  0.25225     H
C156   0.53289  0.58146  0.39785     C
C157   0.50996  0.57827  0.55518     C
H158   0.48232  0.59941  0.57916     H
C159   0.52204  0.54805  0.67966     C
H160    0.5037   0.5459  0.80014     H
C161   0.52004  0.61337  0.26774     C
H162   0.49552  0.63704  0.31026     H
N163   0.53732  0.61359  0.11523     N
N164   0.36359  0.71268  0.13477     N
N165   0.63641  0.78732  0.13477     N
C166   0.39566   0.7241  0.25629     C
C167   0.60434   0.7759  0.25629     C
C168    0.5259  0.64566  0.99371     C
C169    0.4741  0.85434  0.99371     C
C170   0.40449  0.69426   0.3892     C
C171   0.59551  0.80574   0.3892     C
C172   0.55574  0.65449   0.8608     C
C173   0.44426  0.84551   0.8608     C
H174   0.38575  0.66442   0.3971     H
H175   0.61425  0.83558   0.3971     H
H176   0.58558  0.63575   0.8529     H
H177   0.41442  0.86425   0.8529     H
C178    0.4374  0.70191  0.50923     C
C179    0.5626  0.79809  0.50923     C
C180   0.54809   0.6874  0.74077     C
C181   0.45191   0.8126  0.74077     C
H182   0.44395  0.67727  0.60684     H
H183   0.55605  0.82273  0.60684     H
H184   0.57273  0.69395  0.64316     H
H185   0.42727  0.80605  0.64316     H
C186   0.46169  0.74016  0.50315     C
C187   0.53831  0.75984  0.50315     C
C188   0.50984  0.71169  0.74685     C
C189   0.49016  0.78831  0.74685     C
C190   0.45175  0.77055  0.37316     C
C191   0.54825  0.72945  0.37316     C
C192   0.47945  0.70175  0.87684     C
C193   0.52055  0.79825  0.87684     C
H194   0.47028  0.80056  0.36549     H
H195   0.52972  0.69944  0.36549     H
H196   0.44944  0.72028  0.88451     H
H197   0.55056  0.77972  0.88451     H
C198   0.41931  0.76306  0.25178     C
C199   0.58069  0.73694  0.25178     C
C200   0.48694  0.66931  0.99822     C
C201   0.51306  0.83069  0.99822     C
H202   0.41258  0.78774   0.1544     H
H203   0.58742  0.71226   0.1544     H
C204       0.5     0.75    0.625     C
H205   0.46226  0.66258   0.0956     H
C206   0.44293  0.98019    0.651     C
C207   0.41934  0.97625  0.49543     C
H208   0.39101  0.99662  0.47352     H
C209   0.43112  0.94579  0.37137     C
H210   0.41235  0.94233  0.25225     H
C211   0.46711  0.91854  0.39785     C
C212   0.49004  0.92173  0.55518     C
H213   0.51768  0.90059  0.57916     H
C214   0.47796  0.95195  0.67966     C
H215    0.4963   0.9541  0.80014     H
C216   0.47996  0.88663  0.26774     C
H217   0.50448  0.86296  0.31026     H
N218   0.46268  0.88641  0.11523     N
C219   0.40617  0.08552  0.85517     C
H220   0.39435  0.11723  0.81468     H
C221    0.4162  0.05432   0.7314     C
H222   0.41277  0.06209  0.59403     H
C223   0.43148  0.01325  0.78215     C
C224    0.4361  0.00422  0.96048     C
O225   0.40899  0.10554   0.3202     O
C226   0.40228  0.10996  0.16534     C
H227    0.3887  0.14071   0.1121     H
C228   0.41139  0.07667  0.03308     C
C229   0.42621  0.03543  0.08389     C
H230   0.42936   0.0284  0.22196     H
H231   0.44697  0.97223  0.00209     H
C232   0.14004  0.65228  0.08466     C
H233   0.10929   0.6387   0.1379     H
C234   0.17333  0.66139  0.21692     C
C235   0.16448  0.65617  0.39483     C
H236   0.13277  0.64435  0.43532     H
C237   0.19568   0.6662   0.5186     C
H238   0.18791  0.66277  0.65597     H
C239   0.23675  0.68148  0.46785     C
C240   0.24578   0.6861  0.28952     C
H241   0.27777  0.69697  0.24791     H
C242   0.21457  0.67621  0.16611     C
H243    0.2216  0.67936  0.02804     H
C244   0.26981  0.69293    0.599     C
C245   0.27375  0.66934  0.75457     C
H246   0.25338  0.64101  0.77648     H
C247   0.30421  0.68112  0.87863     C
H248   0.30767  0.66235  0.99775     H
C249   0.33146  0.71711  0.85215     C
C250   0.32827  0.74004  0.69482     C
H251   0.34941  0.76768  0.67084     H
C252   0.29805  0.72796  0.57034     C
H253    0.2959   0.7463  0.44986     H
C254   0.36337  0.72996  0.98226     C
H255   0.38704  0.75448  0.93974     H
O256   0.14446  0.65899   0.9298     O
C257   0.85996  0.84772  0.08466     C
H258   0.89071   0.8613   0.1379     H
C259   0.82667  0.83861  0.21692     C
C260   0.83552  0.84383  0.39483     C
H261   0.86723  0.85565  0.43532     H
C262   0.80432   0.8338   0.5186     C
H263   0.81209  0.83723  0.65597     H
C264   0.76325  0.81852  0.46785     C
C265   0.75422   0.8139  0.28952     C
H266   0.72223  0.80303  0.24791     H
C267   0.78543  0.82379  0.16611     C
H268    0.7784  0.82064  0.02804     H
C269   0.73019  0.80707    0.599     C
C270   0.72625  0.83066  0.75457     C
H271   0.74662  0.85899  0.77648     H
C272   0.69579  0.81888  0.87863     C
H273   0.69233  0.83765  0.99775     H
C274   0.66854  0.78289  0.85215     C
C275   0.67173  0.75996  0.69482     C
H276   0.65059  0.73232  0.67084     H
C277   0.70195  0.77204  0.57034     C
H278    0.7041   0.7537  0.44986     H
C279   0.63663  0.77004  0.98226     C
H280   0.61296  0.74552  0.93974     H
O281   0.85554  0.84101   0.9298     O
H282   0.53774  0.83742   0.0956     H
H283   0.55303  0.52777  0.00209     H
O284   0.59101  0.39446   0.3202     O
C285   0.59772  0.39004  0.16534     C
H286    0.6113  0.35929   0.1121     H
C287   0.58861  0.42333  0.03308     C
C288   0.57379  0.46457  0.08389     C
H289   0.57064   0.4716  0.22196     H
H290   0.99552  0.13704  0.81026     H
C291   0.08066  0.02375  0.99543     C
H292   0.10899  0.00338  0.97352     H
C293   0.06888  0.05421  0.87137     C
H294   0.08765  0.05767  0.75225     H
C295   0.03289  0.08146  0.89785     C
C296   0.02004  0.11337  0.76774     C
N297   0.03732  0.11359  0.61523     N
C298    0.0259  0.14566  0.49371     C
C299   0.05574  0.15449   0.3608     C
H300   0.08558  0.13575   0.3529     H
C301    0.0626  0.29809  0.00923     C
C302   0.04809   0.1874  0.24077     C
H303   0.05605  0.32273  0.10684     H
H304   0.07273  0.19395  0.14316     H
C305   0.03831  0.25984  0.00315     C
C306   0.00984  0.21169  0.24685     C
C307       0.0     0.25    0.125     C
C308   0.05707  0.01981    0.151     C
C309   0.00996  0.07827  0.05518     C
C310   0.02204  0.04805  0.17966     C
H311    0.0037   0.0459  0.30014     H
O312   0.09101  0.89446   0.8202     O
C313   0.09772  0.89004  0.66534     C
H314    0.1113  0.85929   0.6121     H
C315   0.08861  0.92333  0.53308     C
C316   0.09383  0.91448  0.35517     C
H317   0.10565  0.88277  0.31468     H
C318    0.0838  0.94568   0.2314     C
H319   0.08723  0.93791  0.09403     H
C320   0.06852  0.98675  0.28215     C
C321    0.0639  0.99578  0.46048     C
C322   0.07379  0.96457  0.58389     C
H323   0.07064   0.9716  0.72196     H
H324   0.05303  0.02777  0.50209     H
H325   0.98232  0.09941  0.07916     H
C326    0.9374  0.20191  0.00923     C
H327   0.94395  0.17727  0.10684     H
C328   0.96169  0.24016  0.00315     C
C329   0.76981  0.19293    0.099     C
C330   0.77375  0.16934  0.25457     C
H331   0.75338  0.14101  0.27648     H
C332   0.80421  0.18112  0.37863     C
H333   0.80767  0.16235  0.49775     H
C334   0.83146  0.21711  0.35215     C
C335   0.82827  0.24004  0.19482     C
H336   0.84941  0.26768  0.17084     H
C337   0.79805  0.22796  0.07034     C
C338   0.86337  0.22996  0.48226     C
H339   0.88704  0.25448  0.43974     H
N340   0.86359  0.21268  0.63477     N
C341   0.89566   0.2241  0.75629     C
C342   0.90449  0.19426   0.8892     C
H343   0.88575  0.16442   0.8971     H
C344   0.95175  0.27055  0.87316     C
H345   0.97028  0.30056  0.86549     H
C346   0.91931  0.26306  0.75178     C
H347   0.91258  0.28774   0.6544     H
H348    0.7959   0.2463  0.94986     H
O349   0.64446  0.15899   0.4298     O
C350   0.64004  0.15228  0.58466     C
H351   0.60929   0.1387   0.6379     H
C352   0.67333  0.16139  0.71692     C
C353   0.66448  0.15617  0.89483     C
H354   0.63277  0.14435  0.93532     H
C355   0.73675  0.18148  0.96785     C
C356   0.74578   0.1861  0.78952     C
H357   0.77777  0.19697  0.74791     H
C358   0.71457  0.17621  0.66611     C
H359    0.7216  0.17936  0.52804     H
C360   0.69568   0.1662   0.0186     C
H361   0.68791  0.16277  0.15597     H
C362   0.91934  0.47625  0.99543     C
H363   0.89101  0.49662  0.97352     H
C364   0.93112  0.44579  0.87137     C
H365   0.91235  0.44233  0.75225     H
C366   0.96711  0.41854  0.89785     C
C367   0.97996  0.38663  0.76774     C
N368   0.96268  0.38641  0.61523     N
C369    0.9741  0.35434  0.49371     C
C370   0.94426  0.34551   0.3608     C
H371   0.91442  0.36425   0.3529     H
C372   0.95191   0.3126  0.24077     C
H373   0.92727  0.30605  0.14316     H
C374   0.99016  0.28831  0.24685     C
C375   0.02055  0.29825  0.37684     C
H376   0.05056  0.27972  0.38451     H
C377   0.01306  0.33069  0.49822     C
H378   0.03774  0.33742   0.5956     H
H379   0.00448  0.36296  0.81026     H
O380   0.90899  0.60554   0.8202     O
C381   0.90228  0.60996  0.66534     C
H382    0.8887  0.64071   0.6121     H
C383   0.91139  0.57667  0.53308     C
C384   0.90617  0.58552  0.35517     C
H385   0.89435  0.61723  0.31468     H
C386    0.9162  0.55432   0.2314     C
H387   0.91277  0.56209  0.09403     H
C388   0.93148  0.51325  0.28215     C
C389    0.9361  0.50422  0.46048     C
H390   0.94697  0.47223  0.50209     H
C391   0.92621  0.53543  0.58389     C
H392   0.92936   0.5284  0.72196     H
C393   0.94293  0.48019    0.151     C
C394   0.99004  0.42173  0.05518     C
C395   0.97796  0.45195  0.17966     C
H396    0.9963   0.4541  0.30014     H
H397   0.01768  0.40059  0.07916     H
C398   0.23019  0.30707    0.099     C
C399   0.22625  0.33066  0.25457     C
H400   0.24662  0.35899  0.27648     H
C401   0.19579  0.31888  0.37863     C
H402   0.19233  0.33765  0.49775     H
C403   0.16854  0.28289  0.35215     C
C404   0.17173  0.25996  0.19482     C
H405   0.15059  0.23232  0.17084     H
C406   0.20195  0.27204  0.07034     C
C407   0.13663  0.27004  0.48226     C
H408   0.11296  0.24552  0.43974     H
N409   0.13641  0.28732  0.63477     N
C410   0.10434   0.2759  0.75629     C
C411   0.09551  0.30574   0.8892     C
H412   0.11425  0.33558   0.8971     H
C413   0.04825  0.22945  0.87316     C
H414   0.02972  0.19944  0.86549     H
C415   0.08069  0.23694  0.75178     C
H416   0.08742  0.21226   0.6544     H
H417    0.2041   0.2537  0.94986     H
O418   0.35554  0.34101   0.4298     O
C419   0.35996  0.34772  0.58466     C
H420   0.39071   0.3613   0.6379     H
C421   0.32667  0.33861  0.71692     C
C422   0.33552  0.34383  0.89483     C
H423   0.36723  0.35565  0.93532     H
C424   0.26325  0.31852  0.96785     C
C425   0.25422   0.3139  0.78952     C
H426   0.22223  0.30303  0.74791     H
C427   0.28543  0.32379  0.66611     C
H428    0.2784  0.32064  0.52804     H
C429   0.30432   0.3338   0.0186     C
H430   0.31209  0.33723  0.15597     H
C431   0.97945  0.20175  0.37684     C
H432   0.94944  0.22028  0.38451     H
C433   0.98694  0.16931  0.49822     C
H434   0.96226  0.16258   0.5956     H
O435   0.90899  0.10554   0.1798     O
C436   0.90228  0.10996  0.33466     C
H437    0.8887  0.14071   0.3879     H
C438   0.91139  0.07667  0.46692     C
C439   0.90617  0.08552  0.64483     C
H440   0.89435  0.11723  0.68532     H
C441    0.9162  0.05432   0.7686     C
H442   0.91277  0.06209  0.90597     H
C443   0.93148  0.01325  0.71785     C
C444    0.9361  0.00422  0.53952     C
C445   0.92621  0.03543  0.41611     C
H446   0.92936   0.0284  0.27804     H
C447   0.94293  0.98019    0.849     C
C448   0.99004  0.92173  0.94482     C
C449   0.97796  0.95195  0.82034     C
H450    0.9963   0.9541  0.69986     H
H451   0.01768  0.90059  0.92084     H
C452   0.91934  0.97625  0.00457     C
H453   0.89101  0.99662  0.02648     H
C454   0.93112  0.94579  0.12863     C
H455   0.91235  0.94233  0.24775     H
C456   0.96711  0.91854  0.10215     C
C457   0.97996  0.88663  0.23226     C
N458   0.96268  0.88641  0.38477     N
C459    0.9741  0.85434  0.50629     C
C460   0.94426  0.84551   0.6392     C
H461   0.91442  0.86425   0.6471     H
C462   0.95191   0.8126  0.75923     C
H463   0.92727  0.80605  0.85684     H
C464   0.99016  0.78831  0.75315     C
C465   0.02055  0.79825  0.62316     C
H466   0.05056  0.77972  0.61549     H
C467   0.01306  0.83069  0.50178     C
H468   0.03774  0.83742   0.4044     H
C469   0.08066  0.52375  0.00457     C
H470   0.10899  0.50338  0.02648     H
C471   0.06888  0.55421  0.12863     C
H472   0.08765  0.55767  0.24775     H
C473   0.03289  0.58146  0.10215     C
C474   0.02004  0.61337  0.23226     C
N475   0.03732  0.61359  0.38477     N
C476    0.0259  0.64566  0.50629     C
C477   0.05574  0.65449   0.6392     C
H478   0.08558  0.63575   0.6471     H
C479   0.04809   0.6874  0.75923     C
C480    0.0626  0.79809  0.99077     C
H481   0.07273  0.69395  0.85684     H
H482   0.05605  0.82273  0.89316     H
C483   0.00984  0.71169  0.75315     C
C484   0.03831  0.75984  0.99685     C
C485       0.0     0.75    0.875     C
O486   0.09101  0.39446   0.1798     O
C487   0.09772  0.39004  0.33466     C
H488    0.1113  0.35929   0.3879     H
C489   0.08861  0.42333  0.46692     C
C490   0.09383  0.41448  0.64483     C
H491   0.10565  0.38277  0.68532     H
C492    0.0838  0.44568   0.7686     C
H493   0.08723  0.43791  0.90597     H
C494   0.06852  0.48675  0.71785     C
C495    0.0639  0.49578  0.53952     C
H496   0.05303  0.52777  0.49791     H
C497   0.07379  0.46457  0.41611     C
H498   0.07064   0.4716  0.27804     H
C499   0.05707  0.51981    0.849     C
C500   0.00996  0.57827  0.94482     C
C501   0.02204  0.54805  0.82034     C
H502    0.0037   0.5459  0.69986     H
H503   0.98232  0.59941  0.92084     H
C504   0.23019  0.80707    0.901     C
C505   0.22625  0.83066  0.74543     C
H506   0.24662  0.85899  0.72352     H
C507   0.19579  0.81888  0.62137     C
H508   0.19233  0.83765  0.50225     H
C509   0.16854  0.78289  0.64785     C
C510   0.17173  0.75996  0.80518     C
H511   0.15059  0.73232  0.82916     H
C512   0.20195  0.77204  0.92966     C
C513   0.13663  0.77004  0.51774     C
H514   0.11296  0.74552  0.56026     H
N515   0.13641  0.78732  0.36523     N
C516   0.10434   0.7759  0.24371     C
C517   0.09551  0.80574   0.1108     C
H518   0.11425  0.83558   0.1029     H
C519   0.04825  0.72945  0.12684     C
H520   0.02972  0.69944  0.13451     H
C521   0.08069  0.73694  0.24822     C
H522   0.08742  0.71226   0.3456     H
H523    0.2041   0.7537  0.05014     H
O524   0.35554  0.84101   0.5702     O
C525   0.35996  0.84772  0.41534     C
H526   0.39071   0.8613   0.3621     H
C527   0.32667  0.83861  0.28308     C
C528   0.33552  0.84383  0.10517     C
H529   0.36723  0.85565  0.06468     H
C530   0.26325  0.81852  0.03215     C
C531   0.25422   0.8139  0.21048     C
H532   0.22223  0.80303  0.25209     H
C533   0.28543  0.82379  0.33389     C
H534    0.2784  0.82064  0.47196     H
C535   0.30432   0.8338   0.9814     C
H536   0.31209  0.83723  0.84403     H
C537   0.97945  0.70175  0.62316     C
H538   0.94944  0.72028  0.61549     H
C539   0.98694  0.66931  0.50178     C
H540   0.96226  0.66258   0.4044     H
H541   0.99552  0.63704  0.18974     H
C542    0.9374  0.70191  0.99077     C
H543   0.94395  0.67727  0.89316     H
C544   0.96169  0.74016  0.99685     C
C545   0.76981  0.69293    0.901     C
C546   0.77375  0.66934  0.74543     C
H547   0.75338  0.64101  0.72352     H
C548   0.80421  0.68112  0.62137     C
H549   0.80767  0.66235  0.50225     H
C550   0.83146  0.71711  0.64785     C
C551   0.82827  0.74004  0.80518     C
H552   0.84941  0.76768  0.82916     H
C553   0.79805  0.72796  0.92966     C
C554   0.86337  0.72996  0.51774     C
H555   0.88704  0.75448  0.56026     H
N556   0.86359  0.71268  0.36523     N
C557   0.89566   0.7241  0.24371     C
C558   0.90449  0.69426   0.1108     C
H559   0.88575  0.66442   0.1029     H
C560   0.95175  0.77055  0.12684     C
H561   0.97028  0.80056  0.13451     H
C562   0.91931  0.76306  0.24822     C
H563   0.91258  0.78774   0.3456     H
H564    0.7959   0.7463  0.05014     H
O565   0.64446  0.65899   0.5702     O
C566   0.64004  0.65228  0.41534     C
H567   0.60929   0.6387   0.3621     H
C568   0.67333  0.66139  0.28308     C
C569   0.66448  0.65617  0.10517     C
H570   0.63277  0.64435  0.06468     H
C571   0.73675  0.68148  0.03215     C
C572   0.74578   0.6861  0.21048     C
H573   0.77777  0.69697  0.25209     H
C574   0.71457  0.67621  0.33389     C
H575    0.7216  0.67936  0.47196     H
C576   0.69568   0.6662   0.9814     C
H577   0.68791  0.66277  0.84403     H
H578   0.00448  0.86296  0.18974     H
H579   0.94697  0.97223  0.49791     H
loop_
_geom_bond_atom_site_label_1
_geom_bond_atom_site_label_2
_geom_bond_distance
_geom_bond_site_symmetry_2
_ccdc_geom_bond_type
H0    C6     1.08514   1_546     S
C6    H0     1.08514   1_564     S
C1    H2     1.08427       .     S
H2    C1     1.08427       .     S
C1    C3     1.38253       .     S
C3    C1     1.38253       .     S
C1    C10    1.39899   1_554     S
C10   C1     1.39899   1_556     S
C3    H4     1.08421       .     S
H4    C3     1.08421       .     S
C3    C5     1.40037       .     S
C5    C3     1.40037       .     S
C5    C6     1.40123       .     S
C6    C5     1.40123       .     S
C5    C13    1.47079   1_565     S
C13   C5     1.47079   1_545     S
C6    C11    1.37991   1_554     S
C11   C6     1.37991   1_556     S
O7    C8     1.21176       .     S
C8    O7     1.21176       .     S
C8    H9     1.10968       .     S
H9    C8     1.10968       .     S
C8    C10    1.46609       .     S
C10   C8     1.46609       .     S
C10   C11    1.40054       .     S
C11   C10    1.40054       .     S
C11   H12    1.08387       .     S
H12   C11    1.08387       .     S
C13   C14    1.39985       .     S
C14   C13    1.39985       .     S
C13   C21    1.39873       .     S
C21   C13    1.39873       .     S
C14   H15    1.08431       .     S
H15   C14    1.08431       .     S
C14   C16    1.38152       .     S
C16   C14    1.38152       .     S
C16   H17    1.08450       .     S
H17   C16    1.08450       .     S
C16   C18    1.40067       .     S
C18   C16    1.40067       .     S
C18   C19    1.39926       .     S
C19   C18    1.39926       .     S
C18   C23    1.45221       .     S
C23   C18    1.45221       .     S
C19   H20    1.08399       .     S
H20   C19    1.08399       .     S
C19   C21    1.38121       .     S
C21   C19    1.38121       .     S
C21   H22    1.08319       .     S
H22   C21    1.08319       .     S
C23   H24    1.09583       .     S
H24   C23    1.09583       .     S
C23   N25    1.28320       .     S
N25   C23    1.28320       .     S
N25   C29    1.39964   1_556     S
C29   N25    1.39964   1_554     S
N26   C30    1.39964       .     S
C30   N26    1.39964       .     S
N26   C142   1.28320   1_556     S
C142  N26    1.28320   1_554     S
N27   C31    1.39964       .     S
C31   N27    1.39964       .     S
N27   C117   1.28320   1_556     S
C117  N27    1.28320   1_554     S
C28   C32    1.39625       .     S
C32   C28    1.39625       .     S
C28   C60    1.39965       .     S
C60   C28    1.39965       .     S
C28   N87    1.39964   1_554     S
N87   C28    1.39964   1_556     S
C29   C33    1.39625       .     S
C33   C29    1.39625       .     S
C29   C61    1.39965       .     S
C61   C29    1.39965       .     S
C30   C34    1.39625       .     S
C34   C30    1.39625       .     S
C30   C62    1.39965       .     S
C62   C30    1.39965       .     S
C31   C35    1.39625       .     S
C35   C31    1.39625       .     S
C31   C63    1.39965       .     S
C63   C31    1.39965       .     S
C32   H36    1.08347       .     S
H36   C32    1.08347       .     S
C32   C40    1.38620       .     S
C40   C32    1.38620       .     S
C33   H37    1.08347       .     S
H37   C33    1.08347       .     S
C33   C41    1.38620       .     S
C41   C33    1.38620       .     S
C34   H38    1.08347       .     S
H38   C34    1.08347       .     S
C34   C42    1.38620       .     S
C42   C34    1.38620       .     S
C35   H39    1.08347       .     S
H39   C35    1.08347       .     S
C35   C43    1.38620       .     S
C43   C35    1.38620       .     S
C40   H44    1.08253       .     S
H44   C40    1.08253       .     S
C40   C48    1.39185       .     S
C48   C40    1.39185       .     S
C41   H45    1.08253       .     S
H45   C41    1.08253       .     S
C41   C49    1.39185       .     S
C49   C41    1.39185       .     S
C42   H46    1.08253       .     S
H46   C42    1.08253       .     S
C42   C50    1.39185       .     S
C50   C42    1.39185       .     S
C43   H47    1.08253       .     S
H47   C43    1.08253       .     S
C43   C51    1.39185       .     S
C51   C43    1.39185       .     S
C48   C52    1.39833       .     S
C52   C48    1.39833       .     S
C48   C66    1.53166       .     S
C66   C48    1.53166       .     S
C49   C53    1.39833       .     S
C53   C49    1.39833       .     S
C49   C66    1.53166       .     S
C66   C49    1.53166       .     S
C50   C54    1.39833       .     S
C54   C50    1.39833       .     S
C50   C66    1.53166       .     S
C66   C50    1.53166       .     S
C51   C55    1.39833       .     S
C55   C51    1.39833       .     S
C51   C66    1.53166       .     S
C66   C51    1.53166       .     S
C52   H56    1.08440       .     S
H56   C52    1.08440       .     S
C52   C60    1.38183       .     S
C60   C52    1.38183       .     S
C53   H57    1.08440       .     S
H57   C53    1.08440       .     S
C53   C61    1.38183       .     S
C61   C53    1.38183       .     S
C54   H58    1.08440       .     S
H58   C54    1.08440       .     S
C54   C62    1.38183       .     S
C62   C54    1.38183       .     S
C55   H59    1.08440       .     S
H59   C55    1.08440       .     S
C55   C63    1.38183       .     S
C63   C55    1.38183       .     S
C60   H68    1.08321   1_554     S
H68   C60    1.08321   1_556     S
C61   H67    1.08321   1_554     S
H67   C61    1.08321   1_556     S
C62   H64    1.08321       .     S
H64   C62    1.08321       .     S
C63   H65    1.08321       .     S
H65   C63    1.08321       .     S
C69   H70    1.08427       .     S
H70   C69    1.08427       .     S
C69   C71    1.38254       .     S
C71   C69    1.38254       .     S
C69   C91    1.39899   1_554     S
C91   C69    1.39900   1_556     S
C71   H72    1.08421       .     S
H72   C71    1.08421       .     S
C71   C73    1.40036       .     S
C73   C71    1.40036       .     S
C73   C74    1.40123       .     S
C74   C73    1.40123       .     S
C73   C75    1.47079       .     S
C75   C73    1.47079       .     S
C74   C92    1.37990   1_554     S
C92   C74    1.37991   1_556     S
C74   H94    1.08514   1_554     S
H94   C74    1.08514   1_556     S
C75   C76    1.39985       .     S
C76   C75    1.39985       .     S
C75   C83    1.39873       .     S
C83   C75    1.39873       .     S
C76   H77    1.08431       .     S
H77   C76    1.08431       .     S
C76   C78    1.38152       .     S
C78   C76    1.38152       .     S
C78   H79    1.08450       .     S
H79   C78    1.08450       .     S
C78   C80    1.40067       .     S
C80   C78    1.40067       .     S
C80   C81    1.39926       .     S
C81   C80    1.39926       .     S
C80   C85    1.45221       .     S
C85   C80    1.45221       .     S
C81   H82    1.08399       .     S
H82   C81    1.08399       .     S
C81   C83    1.38121       .     S
C83   C81    1.38121       .     S
C83   H84    1.08319       .     S
H84   C83    1.08319       .     S
C85   H86    1.09583       .     S
H86   C85    1.09583       .     S
C85   N87    1.28320       .     S
N87   C85    1.28320       .     S
O88   C89    1.21176       .     S
C89   O88    1.21176       .     S
C89   H90    1.10968       .     S
H90   C89    1.10968       .     S
C89   C91    1.46609       .     S
C91   C89    1.46609       .     S
C91   C92    1.40054       .     S
C92   C91    1.40054       .     S
C92   H93    1.08387       .     S
H93   C92    1.08387       .     S
C95   H96    1.10968       .     S
H96   C95    1.10968       .     S
C95   C97    1.46609       .     S
C97   C95    1.46609       .     S
C95   O119   1.21176   1_556     S
O119  C95    1.21176   1_554     S
C97   C98    1.39899       .     S
C98   C97    1.39899       .     S
C97   C105   1.40054       .     S
C105  C97    1.40054       .     S
C98   H99    1.08427       .     S
H99   C98    1.08427       .     S
C98   C100   1.38253       .     S
C100  C98    1.38253       .     S
C100  H101   1.08421       .     S
H101  C100   1.08421       .     S
C100  C102   1.40037       .     S
C102  C100   1.40037       .     S
C102  C103   1.40123       .     S
C103  C102   1.40123       .     S
C102  C107   1.47079       .     S
C107  C102   1.47079       .     S
C103  H104   1.08514       .     S
H104  C103   1.08514       .     S
C103  C105   1.37990       .     S
C105  C103   1.37990       .     S
C105  H106   1.08387       .     S
H106  C105   1.08387       .     S
C107  C108   1.39985       .     S
C108  C107   1.39985       .     S
C107  C115   1.39873       .     S
C115  C107   1.39873       .     S
C108  H109   1.08431       .     S
H109  C108   1.08431       .     S
C108  C110   1.38152       .     S
C110  C108   1.38152       .     S
C110  H111   1.08450       .     S
H111  C110   1.08450       .     S
C110  C112   1.40067       .     S
C112  C110   1.40067       .     S
C112  C113   1.39926       .     S
C113  C112   1.39926       .     S
C112  C117   1.45221       .     S
C117  C112   1.45221       .     S
C113  H114   1.08399       .     S
H114  C113   1.08399       .     S
C113  C115   1.38121       .     S
C115  C113   1.38121       .     S
C115  H116   1.08319       .     S
H116  C115   1.08319       .     S
C117  H118   1.09583       .     S
H118  C117   1.09583       .     S
C120  H121   1.10968       .     S
H121  C120   1.10968       .     S
C120  C122   1.46609       .     S
C122  C120   1.46609       .     S
C120  O144   1.21176   1_556     S
O144  C120   1.21176   1_554     S
C122  C123   1.39900       .     S
C123  C122   1.39900       .     S
C122  C130   1.40054       .     S
C130  C122   1.40054       .     S
C123  H124   1.08427       .     S
H124  C123   1.08427       .     S
C123  C125   1.38254       .     S
C125  C123   1.38254       .     S
C125  H126   1.08421       .     S
H126  C125   1.08421       .     S
C125  C127   1.40037       .     S
C127  C125   1.40037       .     S
C127  C128   1.40123       .     S
C128  C127   1.40123       .     S
C127  C132   1.47079       .     S
C132  C127   1.47079       .     S
C128  H129   1.08514       .     S
H129  C128   1.08514       .     S
C128  C130   1.37991       .     S
C130  C128   1.37991       .     S
C130  H131   1.08387       .     S
H131  C130   1.08387       .     S
C132  C133   1.39985       .     S
C133  C132   1.39985       .     S
C132  C140   1.39873       .     S
C140  C132   1.39873       .     S
C133  H134   1.08431       .     S
H134  C133   1.08431       .     S
C133  C135   1.38152       .     S
C135  C133   1.38152       .     S
C135  H136   1.08450       .     S
H136  C135   1.08450       .     S
C135  C137   1.40067       .     S
C137  C135   1.40067       .     S
C137  C138   1.39926       .     S
C138  C137   1.39926       .     S
C137  C142   1.45221       .     S
C142  C137   1.45221       .     S
C138  H139   1.08399       .     S
H139  C138   1.08399       .     S
C138  C140   1.38121       .     S
C140  C138   1.38121       .     S
C140  H141   1.08319       .     S
H141  C140   1.08319       .     S
C142  H143   1.09583       .     S
H143  C142   1.09583       .     S
C145  H146   1.08427       .     S
H146  C145   1.08427       .     S
C145  C147   1.38253       .     S
C147  C145   1.38253       .     S
C145  C287   1.39899   1_556     S
C287  C145   1.39899   1_554     S
C147  H148   1.08421       .     S
H148  C147   1.08421       .     S
C147  C149   1.40037       .     S
C149  C147   1.40037       .     S
C149  C150   1.40123       .     S
C150  C149   1.40123       .     S
C149  C151   1.47079       .     S
C151  C149   1.47079       .     S
C150  H283   1.08514   1_556     S
H283  C150   1.08514   1_554     S
C150  C288   1.37991   1_556     S
C288  C150   1.37991   1_554     S
C151  C152   1.39985       .     S
C152  C151   1.39985       .     S
C151  C159   1.39873       .     S
C159  C151   1.39873       .     S
C152  H153   1.08431       .     S
H153  C152   1.08431       .     S
C152  C154   1.38152       .     S
C154  C152   1.38152       .     S
C154  H155   1.08450       .     S
H155  C154   1.08450       .     S
C154  C156   1.40067       .     S
C156  C154   1.40067       .     S
C156  C157   1.39926       .     S
C157  C156   1.39926       .     S
C156  C161   1.45221       .     S
C161  C156   1.45221       .     S
C157  H158   1.08399       .     S
H158  C157   1.08399       .     S
C157  C159   1.38121       .     S
C159  C157   1.38121       .     S
C159  H160   1.08319       .     S
H160  C159   1.08319       .     S
C161  H162   1.09583       .     S
H162  C161   1.09583       .     S
C161  N163   1.28320       .     S
N163  C161   1.28320       .     S
N163  C168   1.39964   1_554     S
C168  N163   1.39964   1_556     S
N164  C166   1.39964       .     S
C166  N164   1.39964       .     S
N164  C254   1.28320   1_554     S
C254  N164   1.28320   1_556     S
N165  C167   1.39964       .     S
C167  N165   1.39964       .     S
N165  C279   1.28320   1_554     S
C279  N165   1.28320   1_556     S
C166  C170   1.39625       .     S
C170  C166   1.39625       .     S
C166  C198   1.39965       .     S
C198  C166   1.39965       .     S
C167  C171   1.39625       .     S
C171  C167   1.39625       .     S
C167  C199   1.39965       .     S
C199  C167   1.39965       .     S
C168  C172   1.39625       .     S
C172  C168   1.39625       .     S
C168  C200   1.39965       .     S
C200  C168   1.39965       .     S
C169  C173   1.39625       .     S
C173  C169   1.39625       .     S
C169  C201   1.39965       .     S
C201  C169   1.39965       .     S
C169  N218   1.39964   1_556     S
N218  C169   1.39964   1_554     S
C170  H174   1.08347       .     S
H174  C170   1.08347       .     S
C170  C178   1.38620       .     S
C178  C170   1.38620       .     S
C171  H175   1.08347       .     S
H175  C171   1.08347       .     S
C171  C179   1.38620       .     S
C179  C171   1.38620       .     S
C172  H176   1.08347       .     S
H176  C172   1.08347       .     S
C172  C180   1.38620       .     S
C180  C172   1.38620       .     S
C173  H177   1.08347       .     S
H177  C173   1.08347       .     S
C173  C181   1.38620       .     S
C181  C173   1.38620       .     S
C178  H182   1.08253       .     S
H182  C178   1.08253       .     S
C178  C186   1.39185       .     S
C186  C178   1.39185       .     S
C179  H183   1.08253       .     S
H183  C179   1.08253       .     S
C179  C187   1.39185       .     S
C187  C179   1.39185       .     S
C180  H184   1.08253       .     S
H184  C180   1.08253       .     S
C180  C188   1.39185       .     S
C188  C180   1.39185       .     S
C181  H185   1.08253       .     S
H185  C181   1.08253       .     S
C181  C189   1.39185       .     S
C189  C181   1.39185       .     S
C186  C190   1.39833       .     S
C190  C186   1.39833       .     S
C186  C204   1.53166       .     S
C204  C186   1.53166       .     S
C187  C191   1.39833       .     S
C191  C187   1.39833       .     S
C187  C204   1.53166       .     S
C204  C187   1.53166       .     S
C188  C192   1.39833       .     S
C192  C188   1.39833       .     S
C188  C204   1.53166       .     S
C204  C188   1.53166       .     S
C189  C193   1.39833       .     S
C193  C189   1.39833       .     S
C189  C204   1.53166       .     S
C204  C189   1.53166       .     S
C190  H194   1.08440       .     S
H194  C190   1.08440       .     S
C190  C198   1.38183       .     S
C198  C190   1.38183       .     S
C191  H195   1.08440       .     S
H195  C191   1.08440       .     S
C191  C199   1.38183       .     S
C199  C191   1.38183       .     S
C192  H196   1.08440       .     S
H196  C192   1.08440       .     S
C192  C200   1.38183       .     S
C200  C192   1.38183       .     S
C193  H197   1.08440       .     S
H197  C193   1.08440       .     S
C193  C201   1.38183       .     S
C201  C193   1.38183       .     S
C198  H202   1.08321       .     S
H202  C198   1.08321       .     S
C199  H203   1.08321       .     S
H203  C199   1.08321       .     S
C200  H205   1.08321   1_556     S
H205  C200   1.08321   1_554     S
C201  H282   1.08321   1_556     S
H282  C201   1.08321   1_554     S
C206  C207   1.39985       .     S
C207  C206   1.39985       .     S
C206  C214   1.39873       .     S
C214  C206   1.39873       .     S
C206  C223   1.47079   1_565     S
C223  C206   1.47079   1_545     S
C207  H208   1.08431       .     S
H208  C207   1.08431       .     S
C207  C209   1.38152       .     S
C209  C207   1.38152       .     S
C209  H210   1.08450       .     S
H210  C209   1.08450       .     S
C209  C211   1.40067       .     S
C211  C209   1.40067       .     S
C211  C212   1.39926       .     S
C212  C211   1.39926       .     S
C211  C216   1.45221       .     S
C216  C211   1.45221       .     S
C212  H213   1.08399       .     S
H213  C212   1.08399       .     S
C212  C214   1.38121       .     S
C214  C212   1.38121       .     S
C214  H215   1.08319       .     S
H215  C214   1.08319       .     S
C216  H217   1.09583       .     S
H217  C216   1.09583       .     S
C216  N218   1.28320       .     S
N218  C216   1.28320       .     S
C219  H220   1.08427       .     S
H220  C219   1.08427       .     S
C219  C221   1.38253       .     S
C221  C219   1.38253       .     S
C219  C228   1.39899   1_556     S
C228  C219   1.39899   1_554     S
C221  H222   1.08421       .     S
H222  C221   1.08421       .     S
C221  C223   1.40037       .     S
C223  C221   1.40037       .     S
C223  C224   1.40123       .     S
C224  C223   1.40123       .     S
C224  C229   1.37990   1_556     S
C229  C224   1.37990   1_554     S
C224  H231   1.08514   1_546     S
H231  C224   1.08514   1_564     S
O225  C226   1.21176       .     S
C226  O225   1.21176       .     S
C226  H227   1.10968       .     S
H227  C226   1.10968       .     S
C226  C228   1.46609       .     S
C228  C226   1.46609       .     S
C228  C229   1.40054       .     S
C229  C228   1.40054       .     S
C229  H230   1.08387       .     S
H230  C229   1.08387       .     S
C232  H233   1.10968       .     S
H233  C232   1.10968       .     S
C232  C234   1.46609       .     S
C234  C232   1.46609       .     S
C232  O256   1.21176   1_554     S
O256  C232   1.21176   1_556     S
C234  C235   1.39899       .     S
C235  C234   1.39899       .     S
C234  C242   1.40054       .     S
C242  C234   1.40054       .     S
C235  H236   1.08427       .     S
H236  C235   1.08427       .     S
C235  C237   1.38253       .     S
C237  C235   1.38253       .     S
C237  H238   1.08421       .     S
H238  C237   1.08421       .     S
C237  C239   1.40037       .     S
C239  C237   1.40037       .     S
C239  C240   1.40123       .     S
C240  C239   1.40123       .     S
C239  C244   1.47079       .     S
C244  C239   1.47079       .     S
C240  H241   1.08514       .     S
H241  C240   1.08514       .     S
C240  C242   1.37991       .     S
C242  C240   1.37991       .     S
C242  H243   1.08387       .     S
H243  C242   1.08387       .     S
C244  C245   1.39985       .     S
C245  C244   1.39985       .     S
C244  C252   1.39873       .     S
C252  C244   1.39873       .     S
C245  H246   1.08431       .     S
H246  C245   1.08431       .     S
C245  C247   1.38152       .     S
C247  C245   1.38152       .     S
C247  H248   1.08450       .     S
H248  C247   1.08450       .     S
C247  C249   1.40067       .     S
C249  C247   1.40067       .     S
C249  C250   1.39926       .     S
C250  C249   1.39926       .     S
C249  C254   1.45221       .     S
C254  C249   1.45221       .     S
C250  H251   1.08399       .     S
H251  C250   1.08399       .     S
C250  C252   1.38121       .     S
C252  C250   1.38121       .     S
C252  H253   1.08319       .     S
H253  C252   1.08319       .     S
C254  H255   1.09583       .     S
H255  C254   1.09583       .     S
C257  H258   1.10968       .     S
H258  C257   1.10968       .     S
C257  C259   1.46609       .     S
C259  C257   1.46609       .     S
C257  O281   1.21176   1_554     S
O281  C257   1.21176   1_556     S
C259  C260   1.39899       .     S
C260  C259   1.39899       .     S
C259  C267   1.40054       .     S
C267  C259   1.40054       .     S
C260  H261   1.08427       .     S
H261  C260   1.08427       .     S
C260  C262   1.38253       .     S
C262  C260   1.38253       .     S
C262  H263   1.08421       .     S
H263  C262   1.08421       .     S
C262  C264   1.40037       .     S
C264  C262   1.40037       .     S
C264  C265   1.40123       .     S
C265  C264   1.40123       .     S
C264  C269   1.47079       .     S
C269  C264   1.47079       .     S
C265  H266   1.08514       .     S
H266  C265   1.08514       .     S
C265  C267   1.37991       .     S
C267  C265   1.37991       .     S
C267  H268   1.08387       .     S
H268  C267   1.08387       .     S
C269  C270   1.39985       .     S
C270  C269   1.39985       .     S
C269  C277   1.39873       .     S
C277  C269   1.39873       .     S
C270  H271   1.08431       .     S
H271  C270   1.08431       .     S
C270  C272   1.38152       .     S
C272  C270   1.38152       .     S
C272  H273   1.08450       .     S
H273  C272   1.08450       .     S
C272  C274   1.40067       .     S
C274  C272   1.40067       .     S
C274  C275   1.39926       .     S
C275  C274   1.39926       .     S
C274  C279   1.45221       .     S
C279  C274   1.45221       .     S
C275  H276   1.08399       .     S
H276  C275   1.08399       .     S
C275  C277   1.38121       .     S
C277  C275   1.38121       .     S
C277  H278   1.08319       .     S
H278  C277   1.08319       .     S
C279  H280   1.09583       .     S
H280  C279   1.09583       .     S
O284  C285   1.21176       .     S
C285  O284   1.21176       .     S
C285  H286   1.10968       .     S
H286  C285   1.10968       .     S
C285  C287   1.46609       .     S
C287  C285   1.46609       .     S
C287  C288   1.40054       .     S
C288  C287   1.40054       .     S
C288  H289   1.08387       .     S
H289  C288   1.08387       .     S
H290  C296   1.09584   1_655     S
C296  H290   1.09584   1_455     S
C291  H292   1.08431       .     S
H292  C291   1.08431       .     S
C291  C293   1.38152       .     S
C293  C291   1.38152       .     S
C291  C308   1.39985   1_556     S
C308  C291   1.39985   1_554     S
C293  H294   1.08450       .     S
H294  C293   1.08450       .     S
C293  C295   1.40067       .     S
C295  C293   1.40067       .     S
C295  C296   1.45221       .     S
C296  C295   1.45221       .     S
C295  C309   1.39926   1_556     S
C309  C295   1.39926   1_554     S
C296  N297   1.28320       .     S
N297  C296   1.28320       .     S
N297  C298   1.39964       .     S
C298  N297   1.39964       .     S
C298  C299   1.39625       .     S
C299  C298   1.39625       .     S
C298  C433   1.39965   1_455     S
C433  C298   1.39965   1_655     S
C299  H300   1.08347       .     S
H300  C299   1.08347       .     S
C299  C302   1.38620       .     S
C302  C299   1.38620       .     S
C301  H303   1.08253       .     S
H303  C301   1.08253       .     S
C301  C305   1.39185       .     S
C305  C301   1.39185       .     S
C301  C411   1.38620   1_554     S
C411  C301   1.38620   1_556     S
C302  H304   1.08253       .     S
H304  C302   1.08253       .     S
C302  C306   1.39185       .     S
C306  C302   1.39185       .     S
C305  C307   1.53166       .     S
C307  C305   1.53166       .     S
C305  C413   1.39833   1_554     S
C413  C305   1.39833   1_556     S
C306  C307   1.53166       .     S
C307  C306   1.53166       .     S
C306  C431   1.39833   1_455     S
C431  C306   1.39833   1_655     S
C307  C328   1.53166   1_455     S
C328  C307   1.53166   1_655     S
C307  C374   1.53166   1_455     S
C374  C307   1.53166   1_655     S
C308  C310   1.39873       .     S
C310  C308   1.39873       .     S
C308  C320   1.47079   1_545     S
C320  C308   1.47079   1_565     S
C309  C310   1.38121       .     S
C310  C309   1.38121       .     S
C309  H325   1.08399   1_455     S
H325  C309   1.08399   1_655     S
C310  H311   1.08319       .     S
H311  C310   1.08319       .     S
O312  C313   1.21176       .     S
C313  O312   1.21176       .     S
C313  H314   1.10968       .     S
H314  C313   1.10968       .     S
C313  C315   1.46609       .     S
C315  C313   1.46609       .     S
C315  C316   1.39899       .     S
C316  C315   1.39899       .     S
C315  C322   1.40054       .     S
C322  C315   1.40054       .     S
C316  H317   1.08427       .     S
H317  C316   1.08427       .     S
C316  C318   1.38254       .     S
C318  C316   1.38254       .     S
C318  H319   1.08421       .     S
H319  C318   1.08421       .     S
C318  C320   1.40037       .     S
C320  C318   1.40037       .     S
C320  C321   1.40123       .     S
C321  C320   1.40123       .     S
C321  C322   1.37990       .     S
C322  C321   1.37990       .     S
C321  H324   1.08514   1_565     S
H324  C321   1.08514   1_545     S
C322  H323   1.08387       .     S
H323  C322   1.08387       .     S
C326  H327   1.08253       .     S
H327  C326   1.08253       .     S
C326  C328   1.39185       .     S
C328  C326   1.39185       .     S
C326  C342   1.38620   1_554     S
C342  C326   1.38620   1_556     S
C328  C344   1.39833   1_554     S
C344  C328   1.39833   1_556     S
C329  C330   1.39985       .     S
C330  C329   1.39985       .     S
C329  C337   1.39873       .     S
C337  C329   1.39873       .     S
C329  C355   1.47079   1_554     S
C355  C329   1.47079   1_556     S
C330  H331   1.08431       .     S
H331  C330   1.08431       .     S
C330  C332   1.38152       .     S
C332  C330   1.38152       .     S
C332  H333   1.08450       .     S
H333  C332   1.08450       .     S
C332  C334   1.40067       .     S
C334  C332   1.40067       .     S
C334  C335   1.39926       .     S
C335  C334   1.39926       .     S
C334  C338   1.45221       .     S
C338  C334   1.45221       .     S
C335  H336   1.08399       .     S
H336  C335   1.08399       .     S
C335  C337   1.38121       .     S
C337  C335   1.38121       .     S
C337  H348   1.08319   1_554     S
H348  C337   1.08319   1_556     S
C338  H339   1.09583       .     S
H339  C338   1.09583       .     S
C338  N340   1.28320       .     S
N340  C338   1.28320       .     S
N340  C341   1.39964       .     S
C341  N340   1.39964       .     S
C341  C342   1.39625       .     S
C342  C341   1.39625       .     S
C341  C346   1.39965       .     S
C346  C341   1.39965       .     S
C342  H343   1.08347       .     S
H343  C342   1.08347       .     S
C344  H345   1.08440       .     S
H345  C344   1.08440       .     S
C344  C346   1.38183       .     S
C346  C344   1.38183       .     S
C346  H347   1.08321       .     S
H347  C346   1.08321       .     S
O349  C350   1.21176       .     S
C350  O349   1.21176       .     S
C350  H351   1.10968       .     S
H351  C350   1.10968       .     S
C350  C352   1.46609       .     S
C352  C350   1.46609       .     S
C352  C353   1.39900       .     S
C353  C352   1.39900       .     S
C352  C358   1.40054       .     S
C358  C352   1.40054       .     S
C353  H354   1.08427       .     S
H354  C353   1.08427       .     S
C353  C360   1.38253   1_556     S
C360  C353   1.38253   1_554     S
C355  C356   1.40123       .     S
C356  C355   1.40123       .     S
C355  C360   1.40037   1_556     S
C360  C355   1.40037   1_554     S
C356  H357   1.08514       .     S
H357  C356   1.08514       .     S
C356  C358   1.37990       .     S
C358  C356   1.37990       .     S
C358  H359   1.08387       .     S
H359  C358   1.08387       .     S
C360  H361   1.08421       .     S
H361  C360   1.08421       .     S
C362  H363   1.08431       .     S
H363  C362   1.08431       .     S
C362  C364   1.38152       .     S
C364  C362   1.38152       .     S
C362  C393   1.39985   1_556     S
C393  C362   1.39985   1_554     S
C364  H365   1.08450       .     S
H365  C364   1.08450       .     S
C364  C366   1.40067       .     S
C366  C364   1.40067       .     S
C366  C367   1.45221       .     S
C367  C366   1.45221       .     S
C366  C394   1.39926   1_556     S
C394  C366   1.39926   1_554     S
C367  N368   1.28320       .     S
N368  C367   1.28320       .     S
C367  H379   1.09583   1_655     S
H379  C367   1.09583   1_455     S
N368  C369   1.39964       .     S
C369  N368   1.39964       .     S
C369  C370   1.39625       .     S
C370  C369   1.39625       .     S
C369  C377   1.39965   1_655     S
C377  C369   1.39965   1_455     S
C370  H371   1.08347       .     S
H371  C370   1.08347       .     S
C370  C372   1.38620       .     S
C372  C370   1.38620       .     S
C372  H373   1.08253       .     S
H373  C372   1.08253       .     S
C372  C374   1.39185       .     S
C374  C372   1.39185       .     S
C374  C375   1.39833   1_655     S
C375  C374   1.39833   1_455     S
C375  H376   1.08440       .     S
H376  C375   1.08440       .     S
C375  C377   1.38183       .     S
C377  C375   1.38183       .     S
C377  H378   1.08321       .     S
H378  C377   1.08321       .     S
O380  C381   1.21176       .     S
C381  O380   1.21176       .     S
C381  H382   1.10968       .     S
H382  C381   1.10968       .     S
C381  C383   1.46609       .     S
C383  C381   1.46609       .     S
C383  C384   1.39899       .     S
C384  C383   1.39899       .     S
C383  C391   1.40054       .     S
C391  C383   1.40054       .     S
C384  H385   1.08427       .     S
H385  C384   1.08427       .     S
C384  C386   1.38254       .     S
C386  C384   1.38254       .     S
C386  H387   1.08421       .     S
H387  C386   1.08421       .     S
C386  C388   1.40036       .     S
C388  C386   1.40036       .     S
C388  C389   1.40123       .     S
C389  C388   1.40123       .     S
C388  C393   1.47079       .     S
C393  C388   1.47079       .     S
C389  H390   1.08514       .     S
H390  C389   1.08514       .     S
C389  C391   1.37991       .     S
C391  C389   1.37991       .     S
C391  H392   1.08387       .     S
H392  C391   1.08387       .     S
C393  C395   1.39873       .     S
C395  C393   1.39873       .     S
C394  C395   1.38121       .     S
C395  C394   1.38121       .     S
C394  H397   1.08399   1_655     S
H397  C394   1.08399   1_455     S
C395  H396   1.08319       .     S
H396  C395   1.08319       .     S
C398  C399   1.39985       .     S
C399  C398   1.39985       .     S
C398  C406   1.39873       .     S
C406  C398   1.39873       .     S
C398  C424   1.47079   1_554     S
C424  C398   1.47079   1_556     S
C399  H400   1.08431       .     S
H400  C399   1.08431       .     S
C399  C401   1.38152       .     S
C401  C399   1.38152       .     S
C401  H402   1.08450       .     S
H402  C401   1.08450       .     S
C401  C403   1.40067       .     S
C403  C401   1.40067       .     S
C403  C404   1.39926       .     S
C404  C403   1.39926       .     S
C403  C407   1.45221       .     S
C407  C403   1.45221       .     S
C404  H405   1.08399       .     S
H405  C404   1.08399       .     S
C404  C406   1.38121       .     S
C406  C404   1.38121       .     S
C406  H417   1.08319   1_554     S
H417  C406   1.08319   1_556     S
C407  H408   1.09584       .     S
H408  C407   1.09584       .     S
C407  N409   1.28320       .     S
N409  C407   1.28320       .     S
N409  C410   1.39964       .     S
C410  N409   1.39964       .     S
C410  C411   1.39625       .     S
C411  C410   1.39625       .     S
C410  C415   1.39965       .     S
C415  C410   1.39965       .     S
C411  H412   1.08347       .     S
H412  C411   1.08347       .     S
C413  H414   1.08440       .     S
H414  C413   1.08440       .     S
C413  C415   1.38183       .     S
C415  C413   1.38183       .     S
C415  H416   1.08321       .     S
H416  C415   1.08321       .     S
O418  C419   1.21176       .     S
C419  O418   1.21176       .     S
C419  H420   1.10968       .     S
H420  C419   1.10968       .     S
C419  C421   1.46609       .     S
C421  C419   1.46609       .     S
C421  C422   1.39899       .     S
C422  C421   1.39899       .     S
C421  C427   1.40054       .     S
C427  C421   1.40054       .     S
C422  H423   1.08427       .     S
H423  C422   1.08427       .     S
C422  C429   1.38253   1_556     S
C429  C422   1.38253   1_554     S
C424  C425   1.40123       .     S
C425  C424   1.40123       .     S
C424  C429   1.40037   1_556     S
C429  C424   1.40037   1_554     S
C425  H426   1.08514       .     S
H426  C425   1.08514       .     S
C425  C427   1.37991       .     S
C427  C425   1.37991       .     S
C427  H428   1.08387       .     S
H428  C427   1.08387       .     S
C429  H430   1.08421       .     S
H430  C429   1.08421       .     S
C431  H432   1.08440       .     S
H432  C431   1.08440       .     S
C431  C433   1.38183       .     S
C433  C431   1.38183       .     S
C433  H434   1.08321       .     S
H434  C433   1.08321       .     S
O435  C436   1.21176       .     S
C436  O435   1.21176       .     S
C436  H437   1.10968       .     S
H437  C436   1.10968       .     S
C436  C438   1.46609       .     S
C438  C436   1.46609       .     S
C438  C439   1.39899       .     S
C439  C438   1.39899       .     S
C438  C445   1.40054       .     S
C445  C438   1.40054       .     S
C439  H440   1.08427       .     S
H440  C439   1.08427       .     S
C439  C441   1.38253       .     S
C441  C439   1.38253       .     S
C441  H442   1.08421       .     S
H442  C441   1.08421       .     S
C441  C443   1.40037       .     S
C443  C441   1.40037       .     S
C443  C444   1.40123       .     S
C444  C443   1.40123       .     S
C443  C447   1.47079   1_545     S
C447  C443   1.47079   1_565     S
C444  C445   1.37991       .     S
C445  C444   1.37991       .     S
C444  H579   1.08514   1_545     S
H579  C444   1.08514   1_565     S
C445  H446   1.08387       .     S
H446  C445   1.08387       .     S
C447  C449   1.39873       .     S
C449  C447   1.39873       .     S
C447  C452   1.39985   1_556     S
C452  C447   1.39985   1_554     S
C448  C449   1.38121       .     S
C449  C448   1.38121       .     S
C448  H451   1.08399   1_655     S
H451  C448   1.08399   1_455     S
C448  C456   1.39926   1_556     S
C456  C448   1.39926   1_554     S
C449  H450   1.08319       .     S
H450  C449   1.08319       .     S
C452  H453   1.08431       .     S
H453  C452   1.08431       .     S
C452  C454   1.38152       .     S
C454  C452   1.38152       .     S
C454  H455   1.08450       .     S
H455  C454   1.08450       .     S
C454  C456   1.40067       .     S
C456  C454   1.40067       .     S
C456  C457   1.45221       .     S
C457  C456   1.45221       .     S
C457  N458   1.28320       .     S
N458  C457   1.28320       .     S
C457  H578   1.09583   1_655     S
H578  C457   1.09583   1_455     S
N458  C459   1.39964       .     S
C459  N458   1.39964       .     S
C459  C460   1.39625       .     S
C460  C459   1.39625       .     S
C459  C467   1.39965   1_655     S
C467  C459   1.39965   1_455     S
C460  H461   1.08347       .     S
H461  C460   1.08347       .     S
C460  C462   1.38620       .     S
C462  C460   1.38620       .     S
C462  H463   1.08253       .     S
H463  C462   1.08253       .     S
C462  C464   1.39185       .     S
C464  C462   1.39185       .     S
C464  C465   1.39833   1_655     S
C465  C464   1.39833   1_455     S
C464  C485   1.53166   1_655     S
C485  C464   1.53166   1_455     S
C465  H466   1.08440       .     S
H466  C465   1.08440       .     S
C465  C467   1.38183       .     S
C467  C465   1.38183       .     S
C467  H468   1.08321       .     S
H468  C467   1.08321       .     S
C469  H470   1.08431       .     S
H470  C469   1.08431       .     S
C469  C471   1.38152       .     S
C471  C469   1.38152       .     S
C469  C499   1.39985   1_554     S
C499  C469   1.39985   1_556     S
C471  H472   1.08450       .     S
H472  C471   1.08450       .     S
C471  C473   1.40067       .     S
C473  C471   1.40067       .     S
C473  C474   1.45221       .     S
C474  C473   1.45221       .     S
C473  C500   1.39926   1_554     S
C500  C473   1.39926   1_556     S
C474  N475   1.28320       .     S
N475  C474   1.28320       .     S
C474  H541   1.09584   1_455     S
H541  C474   1.09583   1_655     S
N475  C476   1.39964       .     S
C476  N475   1.39964       .     S
C476  C477   1.39625       .     S
C477  C476   1.39625       .     S
C476  C539   1.39965   1_455     S
C539  C476   1.39965   1_655     S
C477  H478   1.08347       .     S
H478  C477   1.08347       .     S
C477  C479   1.38620       .     S
C479  C477   1.38620       .     S
C479  H481   1.08253       .     S
H481  C479   1.08253       .     S
C479  C483   1.39185       .     S
C483  C479   1.39185       .     S
C480  H482   1.08253       .     S
H482  C480   1.08253       .     S
C480  C484   1.39185       .     S
C484  C480   1.39185       .     S
C480  C517   1.38620   1_556     S
C517  C480   1.38620   1_554     S
C483  C485   1.53166       .     S
C485  C483   1.53166       .     S
C483  C537   1.39833   1_455     S
C537  C483   1.39833   1_655     S
C484  C485   1.53166       .     S
C485  C484   1.53166       .     S
C484  C519   1.39833   1_556     S
C519  C484   1.39833   1_554     S
C485  C544   1.53166   1_455     S
C544  C485   1.53166   1_655     S
O486  C487   1.21176       .     S
C487  O486   1.21176       .     S
C487  H488   1.10968       .     S
H488  C487   1.10968       .     S
C487  C489   1.46609       .     S
C489  C487   1.46609       .     S
C489  C490   1.39899       .     S
C490  C489   1.39899       .     S
C489  C497   1.40054       .     S
C497  C489   1.40054       .     S
C490  H491   1.08427       .     S
H491  C490   1.08427       .     S
C490  C492   1.38253       .     S
C492  C490   1.38253       .     S
C492  H493   1.08421       .     S
H493  C492   1.08421       .     S
C492  C494   1.40037       .     S
C494  C492   1.40037       .     S
C494  C495   1.40123       .     S
C495  C494   1.40123       .     S
C494  C499   1.47079       .     S
C499  C494   1.47079       .     S
C495  H496   1.08514       .     S
H496  C495   1.08514       .     S
C495  C497   1.37990       .     S
C497  C495   1.37990       .     S
C497  H498   1.08387       .     S
H498  C497   1.08387       .     S
C499  C501   1.39873       .     S
C501  C499   1.39873       .     S
C500  C501   1.38121       .     S
C501  C500   1.38121       .     S
C500  H503   1.08399   1_455     S
H503  C500   1.08399   1_655     S
C501  H502   1.08319       .     S
H502  C501   1.08319       .     S
C504  C505   1.39985       .     S
C505  C504   1.39985       .     S
C504  C512   1.39873       .     S
C512  C504   1.39873       .     S
C504  C530   1.47079   1_556     S
C530  C504   1.47079   1_554     S
C505  H506   1.08431       .     S
H506  C505   1.08431       .     S
C505  C507   1.38152       .     S
C507  C505   1.38152       .     S
C507  H508   1.08450       .     S
H508  C507   1.08450       .     S
C507  C509   1.40067       .     S
C509  C507   1.40067       .     S
C509  C510   1.39926       .     S
C510  C509   1.39926       .     S
C509  C513   1.45221       .     S
C513  C509   1.45221       .     S
C510  H511   1.08399       .     S
H511  C510   1.08399       .     S
C510  C512   1.38121       .     S
C512  C510   1.38121       .     S
C512  H523   1.08319   1_556     S
H523  C512   1.08319   1_554     S
C513  H514   1.09584       .     S
H514  C513   1.09584       .     S
C513  N515   1.28320       .     S
N515  C513   1.28320       .     S
N515  C516   1.39964       .     S
C516  N515   1.39964       .     S
C516  C517   1.39625       .     S
C517  C516   1.39625       .     S
C516  C521   1.39965       .     S
C521  C516   1.39965       .     S
C517  H518   1.08347       .     S
H518  C517   1.08347       .     S
C519  H520   1.08440       .     S
H520  C519   1.08440       .     S
C519  C521   1.38183       .     S
C521  C519   1.38183       .     S
C521  H522   1.08321       .     S
H522  C521   1.08321       .     S
O524  C525   1.21176       .     S
C525  O524   1.21176       .     S
C525  H526   1.10968       .     S
H526  C525   1.10968       .     S
C525  C527   1.46609       .     S
C527  C525   1.46609       .     S
C527  C528   1.39899       .     S
C528  C527   1.39899       .     S
C527  C533   1.40054       .     S
C533  C527   1.40054       .     S
C528  H529   1.08427       .     S
H529  C528   1.08427       .     S
C528  C535   1.38253   1_554     S
C535  C528   1.38253   1_556     S
C530  C531   1.40123       .     S
C531  C530   1.40123       .     S
C530  C535   1.40037   1_554     S
C535  C530   1.40037   1_556     S
C531  H532   1.08514       .     S
H532  C531   1.08514       .     S
C531  C533   1.37991       .     S
C533  C531   1.37991       .     S
C533  H534   1.08387       .     S
H534  C533   1.08387       .     S
C535  H536   1.08421       .     S
H536  C535   1.08421       .     S
C537  H538   1.08440       .     S
H538  C537   1.08440       .     S
C537  C539   1.38183       .     S
C539  C537   1.38183       .     S
C539  H540   1.08321       .     S
H540  C539   1.08321       .     S
C542  H543   1.08253       .     S
H543  C542   1.08253       .     S
C542  C544   1.39185       .     S
C544  C542   1.39185       .     S
C542  C558   1.38620   1_556     S
C558  C542   1.38620   1_554     S
C544  C560   1.39833   1_556     S
C560  C544   1.39833   1_554     S
C545  C546   1.39985       .     S
C546  C545   1.39985       .     S
C545  C553   1.39873       .     S
C553  C545   1.39873       .     S
C545  C571   1.47079   1_556     S
C571  C545   1.47079   1_554     S
C546  H547   1.08431       .     S
H547  C546   1.08431       .     S
C546  C548   1.38152       .     S
C548  C546   1.38152       .     S
C548  H549   1.08450       .     S
H549  C548   1.08450       .     S
C548  C550   1.40067       .     S
C550  C548   1.40067       .     S
C550  C551   1.39926       .     S
C551  C550   1.39926       .     S
C550  C554   1.45221       .     S
C554  C550   1.45221       .     S
C551  H552   1.08399       .     S
H552  C551   1.08399       .     S
C551  C553   1.38121       .     S
C553  C551   1.38121       .     S
C553  H564   1.08319   1_556     S
H564  C553   1.08319   1_554     S
C554  H555   1.09583       .     S
H555  C554   1.09583       .     S
C554  N556   1.28320       .     S
N556  C554   1.28320       .     S
N556  C557   1.39964       .     S
C557  N556   1.39964       .     S
C557  C558   1.39625       .     S
C558  C557   1.39625       .     S
C557  C562   1.39965       .     S
C562  C557   1.39965       .     S
C558  H559   1.08347       .     S
H559  C558   1.08347       .     S
C560  H561   1.08440       .     S
H561  C560   1.08440       .     S
C560  C562   1.38183       .     S
C562  C560   1.38183       .     S
C562  H563   1.08321       .     S
H563  C562   1.08321       .     S
O565  C566   1.21176       .     S
C566  O565   1.21176       .     S
C566  H567   1.10968       .     S
H567  C566   1.10968       .     S
C566  C568   1.46609       .     S
C568  C566   1.46609       .     S
C568  C569   1.39900       .     S
C569  C568   1.39900       .     S
C568  C574   1.40054       .     S
C574  C568   1.40054       .     S
C569  H570   1.08427       .     S
H570  C569   1.08427       .     S
C569  C576   1.38253   1_554     S
C576  C569   1.38253   1_556     S
C571  C572   1.40123       .     S
C572  C571   1.40123       .     S
C571  C576   1.40037   1_554     S
C576  C571   1.40037   1_556     S
C572  H573   1.08514       .     S
H573  C572   1.08514       .     S
C572  C574   1.37991       .     S
C574  C572   1.37991       .     S
C574  H575   1.08387       .     S
H575  C574   1.08387       .     S
C576  H577   1.08421       .     S
H577  C576   1.08421       .     S
C6    H0     1.08514   1_564     S
H0    C6     1.08514   1_546     S
H2    C1     1.08427       .     S
C1    H2     1.08427       .     S
C3    C1     1.38253       .     S
C1    C3     1.38253       .     S
C10   C1     1.39899   1_556     S
C1    C10    1.39899   1_554     S
H4    C3     1.08421       .     S
C3    H4     1.08421       .     S
C5    C3     1.40037       .     S
C3    C5     1.40037       .     S
C6    C5     1.40123       .     S
C5    C6     1.40123       .     S
C13   C5     1.47079   1_545     S
C5    C13    1.47079   1_565     S
C11   C6     1.37991   1_556     S
C6    C11    1.37991   1_554     S
C8    O7     1.21176       .     S
O7    C8     1.21176       .     S
H9    C8     1.10968       .     S
C8    H9     1.10968       .     S
C10   C8     1.46609       .     S
C8    C10    1.46609       .     S
C11   C10    1.40054       .     S
C10   C11    1.40054       .     S
H12   C11    1.08387       .     S
C11   H12    1.08387       .     S
C14   C13    1.39985       .     S
C13   C14    1.39985       .     S
C21   C13    1.39873       .     S
C13   C21    1.39873       .     S
H15   C14    1.08431       .     S
C14   H15    1.08431       .     S
C16   C14    1.38152       .     S
C14   C16    1.38152       .     S
H17   C16    1.08450       .     S
C16   H17    1.08450       .     S
C18   C16    1.40067       .     S
C16   C18    1.40067       .     S
C19   C18    1.39926       .     S
C18   C19    1.39926       .     S
C23   C18    1.45221       .     S
C18   C23    1.45221       .     S
H20   C19    1.08399       .     S
C19   H20    1.08399       .     S
C21   C19    1.38121       .     S
C19   C21    1.38121       .     S
H22   C21    1.08319       .     S
C21   H22    1.08319       .     S
H24   C23    1.09583       .     S
C23   H24    1.09583       .     S
N25   C23    1.28320       .     S
C23   N25    1.28320       .     S
C29   N25    1.39964   1_554     S
N25   C29    1.39964   1_556     S
C30   N26    1.39964       .     S
N26   C30    1.39964       .     S
C142  N26    1.28320   1_554     S
N26   C142   1.28320   1_556     S
C31   N27    1.39964       .     S
N27   C31    1.39964       .     S
C117  N27    1.28320   1_554     S
N27   C117   1.28320   1_556     S
C32   C28    1.39625       .     S
C28   C32    1.39625       .     S
C60   C28    1.39965       .     S
C28   C60    1.39965       .     S
N87   C28    1.39964   1_556     S
C28   N87    1.39964   1_554     S
C33   C29    1.39625       .     S
C29   C33    1.39625       .     S
C61   C29    1.39965       .     S
C29   C61    1.39965       .     S
C34   C30    1.39625       .     S
C30   C34    1.39625       .     S
C62   C30    1.39965       .     S
C30   C62    1.39965       .     S
C35   C31    1.39625       .     S
C31   C35    1.39625       .     S
C63   C31    1.39965       .     S
C31   C63    1.39965       .     S
H36   C32    1.08347       .     S
C32   H36    1.08347       .     S
C40   C32    1.38620       .     S
C32   C40    1.38620       .     S
H37   C33    1.08347       .     S
C33   H37    1.08347       .     S
C41   C33    1.38620       .     S
C33   C41    1.38620       .     S
H38   C34    1.08347       .     S
C34   H38    1.08347       .     S
C42   C34    1.38620       .     S
C34   C42    1.38620       .     S
H39   C35    1.08347       .     S
C35   H39    1.08347       .     S
C43   C35    1.38620       .     S
C35   C43    1.38620       .     S
H44   C40    1.08253       .     S
C40   H44    1.08253       .     S
C48   C40    1.39185       .     S
C40   C48    1.39185       .     S
H45   C41    1.08253       .     S
C41   H45    1.08253       .     S
C49   C41    1.39185       .     S
C41   C49    1.39185       .     S
H46   C42    1.08253       .     S
C42   H46    1.08253       .     S
C50   C42    1.39185       .     S
C42   C50    1.39185       .     S
H47   C43    1.08253       .     S
C43   H47    1.08253       .     S
C51   C43    1.39185       .     S
C43   C51    1.39185       .     S
C52   C48    1.39833       .     S
C48   C52    1.39833       .     S
C66   C48    1.53166       .     S
C48   C66    1.53166       .     S
C53   C49    1.39833       .     S
C49   C53    1.39833       .     S
C66   C49    1.53166       .     S
C49   C66    1.53166       .     S
C54   C50    1.39833       .     S
C50   C54    1.39833       .     S
C66   C50    1.53166       .     S
C50   C66    1.53166       .     S
C55   C51    1.39833       .     S
C51   C55    1.39833       .     S
C66   C51    1.53166       .     S
C51   C66    1.53166       .     S
H56   C52    1.08440       .     S
C52   H56    1.08440       .     S
C60   C52    1.38183       .     S
C52   C60    1.38183       .     S
H57   C53    1.08440       .     S
C53   H57    1.08440       .     S
C61   C53    1.38183       .     S
C53   C61    1.38183       .     S
H58   C54    1.08440       .     S
C54   H58    1.08440       .     S
C62   C54    1.38183       .     S
C54   C62    1.38183       .     S
H59   C55    1.08440       .     S
C55   H59    1.08440       .     S
C63   C55    1.38183       .     S
C55   C63    1.38183       .     S
H68   C60    1.08321   1_556     S
C60   H68    1.08321   1_554     S
H67   C61    1.08321   1_556     S
C61   H67    1.08321   1_554     S
H64   C62    1.08321       .     S
C62   H64    1.08321       .     S
H65   C63    1.08321       .     S
C63   H65    1.08321       .     S
H70   C69    1.08427       .     S
C69   H70    1.08427       .     S
C71   C69    1.38254       .     S
C69   C71    1.38254       .     S
C91   C69    1.39900   1_556     S
C69   C91    1.39899   1_554     S
H72   C71    1.08421       .     S
C71   H72    1.08421       .     S
C73   C71    1.40036       .     S
C71   C73    1.40036       .     S
C74   C73    1.40123       .     S
C73   C74    1.40123       .     S
C75   C73    1.47079       .     S
C73   C75    1.47079       .     S
C92   C74    1.37991   1_556     S
C74   C92    1.37990   1_554     S
H94   C74    1.08514   1_556     S
C74   H94    1.08514   1_554     S
C76   C75    1.39985       .     S
C75   C76    1.39985       .     S
C83   C75    1.39873       .     S
C75   C83    1.39873       .     S
H77   C76    1.08431       .     S
C76   H77    1.08431       .     S
C78   C76    1.38152       .     S
C76   C78    1.38152       .     S
H79   C78    1.08450       .     S
C78   H79    1.08450       .     S
C80   C78    1.40067       .     S
C78   C80    1.40067       .     S
C81   C80    1.39926       .     S
C80   C81    1.39926       .     S
C85   C80    1.45221       .     S
C80   C85    1.45221       .     S
H82   C81    1.08399       .     S
C81   H82    1.08399       .     S
C83   C81    1.38121       .     S
C81   C83    1.38121       .     S
H84   C83    1.08319       .     S
C83   H84    1.08319       .     S
H86   C85    1.09583       .     S
C85   H86    1.09583       .     S
N87   C85    1.28320       .     S
C85   N87    1.28320       .     S
C89   O88    1.21176       .     S
O88   C89    1.21176       .     S
H90   C89    1.10968       .     S
C89   H90    1.10968       .     S
C91   C89    1.46609       .     S
C89   C91    1.46609       .     S
C92   C91    1.40054       .     S
C91   C92    1.40054       .     S
H93   C92    1.08387       .     S
C92   H93    1.08387       .     S
H96   C95    1.10968       .     S
C95   H96    1.10968       .     S
C97   C95    1.46609       .     S
C95   C97    1.46609       .     S
O119  C95    1.21176   1_554     S
C95   O119   1.21176   1_556     S
C98   C97    1.39899       .     S
C97   C98    1.39899       .     S
C105  C97    1.40054       .     S
C97   C105   1.40054       .     S
H99   C98    1.08427       .     S
C98   H99    1.08427       .     S
C100  C98    1.38253       .     S
C98   C100   1.38253       .     S
H101  C100   1.08421       .     S
C100  H101   1.08421       .     S
C102  C100   1.40037       .     S
C100  C102   1.40037       .     S
C103  C102   1.40123       .     S
C102  C103   1.40123       .     S
C107  C102   1.47079       .     S
C102  C107   1.47079       .     S
H104  C103   1.08514       .     S
C103  H104   1.08514       .     S
C105  C103   1.37990       .     S
C103  C105   1.37990       .     S
H106  C105   1.08387       .     S
C105  H106   1.08387       .     S
C108  C107   1.39985       .     S
C107  C108   1.39985       .     S
C115  C107   1.39873       .     S
C107  C115   1.39873       .     S
H109  C108   1.08431       .     S
C108  H109   1.08431       .     S
C110  C108   1.38152       .     S
C108  C110   1.38152       .     S
H111  C110   1.08450       .     S
C110  H111   1.08450       .     S
C112  C110   1.40067       .     S
C110  C112   1.40067       .     S
C113  C112   1.39926       .     S
C112  C113   1.39926       .     S
C117  C112   1.45221       .     S
C112  C117   1.45221       .     S
H114  C113   1.08399       .     S
C113  H114   1.08399       .     S
C115  C113   1.38121       .     S
C113  C115   1.38121       .     S
H116  C115   1.08319       .     S
C115  H116   1.08319       .     S
H118  C117   1.09583       .     S
C117  H118   1.09583       .     S
H121  C120   1.10968       .     S
C120  H121   1.10968       .     S
C122  C120   1.46609       .     S
C120  C122   1.46609       .     S
O144  C120   1.21176   1_554     S
C120  O144   1.21176   1_556     S
C123  C122   1.39900       .     S
C122  C123   1.39900       .     S
C130  C122   1.40054       .     S
C122  C130   1.40054       .     S
H124  C123   1.08427       .     S
C123  H124   1.08427       .     S
C125  C123   1.38254       .     S
C123  C125   1.38254       .     S
H126  C125   1.08421       .     S
C125  H126   1.08421       .     S
C127  C125   1.40037       .     S
C125  C127   1.40037       .     S
C128  C127   1.40123       .     S
C127  C128   1.40123       .     S
C132  C127   1.47079       .     S
C127  C132   1.47079       .     S
H129  C128   1.08514       .     S
C128  H129   1.08514       .     S
C130  C128   1.37991       .     S
C128  C130   1.37991       .     S
H131  C130   1.08387       .     S
C130  H131   1.08387       .     S
C133  C132   1.39985       .     S
C132  C133   1.39985       .     S
C140  C132   1.39873       .     S
C132  C140   1.39873       .     S
H134  C133   1.08431       .     S
C133  H134   1.08431       .     S
C135  C133   1.38152       .     S
C133  C135   1.38152       .     S
H136  C135   1.08450       .     S
C135  H136   1.08450       .     S
C137  C135   1.40067       .     S
C135  C137   1.40067       .     S
C138  C137   1.39926       .     S
C137  C138   1.39926       .     S
C142  C137   1.45221       .     S
C137  C142   1.45221       .     S
H139  C138   1.08399       .     S
C138  H139   1.08399       .     S
C140  C138   1.38121       .     S
C138  C140   1.38121       .     S
H141  C140   1.08319       .     S
C140  H141   1.08319       .     S
H143  C142   1.09583       .     S
C142  H143   1.09583       .     S
H146  C145   1.08427       .     S
C145  H146   1.08427       .     S
C147  C145   1.38253       .     S
C145  C147   1.38253       .     S
C287  C145   1.39899   1_554     S
C145  C287   1.39899   1_556     S
H148  C147   1.08421       .     S
C147  H148   1.08421       .     S
C149  C147   1.40037       .     S
C147  C149   1.40037       .     S
C150  C149   1.40123       .     S
C149  C150   1.40123       .     S
C151  C149   1.47079       .     S
C149  C151   1.47079       .     S
H283  C150   1.08514   1_554     S
C150  H283   1.08514   1_556     S
C288  C150   1.37991   1_554     S
C150  C288   1.37991   1_556     S
C152  C151   1.39985       .     S
C151  C152   1.39985       .     S
C159  C151   1.39873       .     S
C151  C159   1.39873       .     S
H153  C152   1.08431       .     S
C152  H153   1.08431       .     S
C154  C152   1.38152       .     S
C152  C154   1.38152       .     S
H155  C154   1.08450       .     S
C154  H155   1.08450       .     S
C156  C154   1.40067       .     S
C154  C156   1.40067       .     S
C157  C156   1.39926       .     S
C156  C157   1.39926       .     S
C161  C156   1.45221       .     S
C156  C161   1.45221       .     S
H158  C157   1.08399       .     S
C157  H158   1.08399       .     S
C159  C157   1.38121       .     S
C157  C159   1.38121       .     S
H160  C159   1.08319       .     S
C159  H160   1.08319       .     S
H162  C161   1.09583       .     S
C161  H162   1.09583       .     S
N163  C161   1.28320       .     S
C161  N163   1.28320       .     S
C168  N163   1.39964   1_556     S
N163  C168   1.39964   1_554     S
C166  N164   1.39964       .     S
N164  C166   1.39964       .     S
C254  N164   1.28320   1_556     S
N164  C254   1.28320   1_554     S
C167  N165   1.39964       .     S
N165  C167   1.39964       .     S
C279  N165   1.28320   1_556     S
N165  C279   1.28320   1_554     S
C170  C166   1.39625       .     S
C166  C170   1.39625       .     S
C198  C166   1.39965       .     S
C166  C198   1.39965       .     S
C171  C167   1.39625       .     S
C167  C171   1.39625       .     S
C199  C167   1.39965       .     S
C167  C199   1.39965       .     S
C172  C168   1.39625       .     S
C168  C172   1.39625       .     S
C200  C168   1.39965       .     S
C168  C200   1.39965       .     S
C173  C169   1.39625       .     S
C169  C173   1.39625       .     S
C201  C169   1.39965       .     S
C169  C201   1.39965       .     S
N218  C169   1.39964   1_554     S
C169  N218   1.39964   1_556     S
H174  C170   1.08347       .     S
C170  H174   1.08347       .     S
C178  C170   1.38620       .     S
C170  C178   1.38620       .     S
H175  C171   1.08347       .     S
C171  H175   1.08347       .     S
C179  C171   1.38620       .     S
C171  C179   1.38620       .     S
H176  C172   1.08347       .     S
C172  H176   1.08347       .     S
C180  C172   1.38620       .     S
C172  C180   1.38620       .     S
H177  C173   1.08347       .     S
C173  H177   1.08347       .     S
C181  C173   1.38620       .     S
C173  C181   1.38620       .     S
H182  C178   1.08253       .     S
C178  H182   1.08253       .     S
C186  C178   1.39185       .     S
C178  C186   1.39185       .     S
H183  C179   1.08253       .     S
C179  H183   1.08253       .     S
C187  C179   1.39185       .     S
C179  C187   1.39185       .     S
H184  C180   1.08253       .     S
C180  H184   1.08253       .     S
C188  C180   1.39185       .     S
C180  C188   1.39185       .     S
H185  C181   1.08253       .     S
C181  H185   1.08253       .     S
C189  C181   1.39185       .     S
C181  C189   1.39185       .     S
C190  C186   1.39833       .     S
C186  C190   1.39833       .     S
C204  C186   1.53166       .     S
C186  C204   1.53166       .     S
C191  C187   1.39833       .     S
C187  C191   1.39833       .     S
C204  C187   1.53166       .     S
C187  C204   1.53166       .     S
C192  C188   1.39833       .     S
C188  C192   1.39833       .     S
C204  C188   1.53166       .     S
C188  C204   1.53166       .     S
C193  C189   1.39833       .     S
C189  C193   1.39833       .     S
C204  C189   1.53166       .     S
C189  C204   1.53166       .     S
H194  C190   1.08440       .     S
C190  H194   1.08440       .     S
C198  C190   1.38183       .     S
C190  C198   1.38183       .     S
H195  C191   1.08440       .     S
C191  H195   1.08440       .     S
C199  C191   1.38183       .     S
C191  C199   1.38183       .     S
H196  C192   1.08440       .     S
C192  H196   1.08440       .     S
C200  C192   1.38183       .     S
C192  C200   1.38183       .     S
H197  C193   1.08440       .     S
C193  H197   1.08440       .     S
C201  C193   1.38183       .     S
C193  C201   1.38183       .     S
H202  C198   1.08321       .     S
C198  H202   1.08321       .     S
H203  C199   1.08321       .     S
C199  H203   1.08321       .     S
H205  C200   1.08321   1_554     S
C200  H205   1.08321   1_556     S
H282  C201   1.08321   1_554     S
C201  H282   1.08321   1_556     S
C207  C206   1.39985       .     S
C206  C207   1.39985       .     S
C214  C206   1.39873       .     S
C206  C214   1.39873       .     S
C223  C206   1.47079   1_545     S
C206  C223   1.47079   1_565     S
H208  C207   1.08431       .     S
C207  H208   1.08431       .     S
C209  C207   1.38152       .     S
C207  C209   1.38152       .     S
H210  C209   1.08450       .     S
C209  H210   1.08450       .     S
C211  C209   1.40067       .     S
C209  C211   1.40067       .     S
C212  C211   1.39926       .     S
C211  C212   1.39926       .     S
C216  C211   1.45221       .     S
C211  C216   1.45221       .     S
H213  C212   1.08399       .     S
C212  H213   1.08399       .     S
C214  C212   1.38121       .     S
C212  C214   1.38121       .     S
H215  C214   1.08319       .     S
C214  H215   1.08319       .     S
H217  C216   1.09583       .     S
C216  H217   1.09583       .     S
N218  C216   1.28320       .     S
C216  N218   1.28320       .     S
H220  C219   1.08427       .     S
C219  H220   1.08427       .     S
C221  C219   1.38253       .     S
C219  C221   1.38253       .     S
C228  C219   1.39899   1_554     S
C219  C228   1.39899   1_556     S
H222  C221   1.08421       .     S
C221  H222   1.08421       .     S
C223  C221   1.40037       .     S
C221  C223   1.40037       .     S
C224  C223   1.40123       .     S
C223  C224   1.40123       .     S
C229  C224   1.37990   1_554     S
C224  C229   1.37990   1_556     S
H231  C224   1.08514   1_564     S
C224  H231   1.08514   1_546     S
C226  O225   1.21176       .     S
O225  C226   1.21176       .     S
H227  C226   1.10968       .     S
C226  H227   1.10968       .     S
C228  C226   1.46609       .     S
C226  C228   1.46609       .     S
C229  C228   1.40054       .     S
C228  C229   1.40054       .     S
H230  C229   1.08387       .     S
C229  H230   1.08387       .     S
H233  C232   1.10968       .     S
C232  H233   1.10968       .     S
C234  C232   1.46609       .     S
C232  C234   1.46609       .     S
O256  C232   1.21176   1_556     S
C232  O256   1.21176   1_554     S
C235  C234   1.39899       .     S
C234  C235   1.39899       .     S
C242  C234   1.40054       .     S
C234  C242   1.40054       .     S
H236  C235   1.08427       .     S
C235  H236   1.08427       .     S
C237  C235   1.38253       .     S
C235  C237   1.38253       .     S
H238  C237   1.08421       .     S
C237  H238   1.08421       .     S
C239  C237   1.40037       .     S
C237  C239   1.40037       .     S
C240  C239   1.40123       .     S
C239  C240   1.40123       .     S
C244  C239   1.47079       .     S
C239  C244   1.47079       .     S
H241  C240   1.08514       .     S
C240  H241   1.08514       .     S
C242  C240   1.37991       .     S
C240  C242   1.37991       .     S
H243  C242   1.08387       .     S
C242  H243   1.08387       .     S
C245  C244   1.39985       .     S
C244  C245   1.39985       .     S
C252  C244   1.39873       .     S
C244  C252   1.39873       .     S
H246  C245   1.08431       .     S
C245  H246   1.08431       .     S
C247  C245   1.38152       .     S
C245  C247   1.38152       .     S
H248  C247   1.08450       .     S
C247  H248   1.08450       .     S
C249  C247   1.40067       .     S
C247  C249   1.40067       .     S
C250  C249   1.39926       .     S
C249  C250   1.39926       .     S
C254  C249   1.45221       .     S
C249  C254   1.45221       .     S
H251  C250   1.08399       .     S
C250  H251   1.08399       .     S
C252  C250   1.38121       .     S
C250  C252   1.38121       .     S
H253  C252   1.08319       .     S
C252  H253   1.08319       .     S
H255  C254   1.09583       .     S
C254  H255   1.09583       .     S
H258  C257   1.10968       .     S
C257  H258   1.10968       .     S
C259  C257   1.46609       .     S
C257  C259   1.46609       .     S
O281  C257   1.21176   1_556     S
C257  O281   1.21176   1_554     S
C260  C259   1.39899       .     S
C259  C260   1.39899       .     S
C267  C259   1.40054       .     S
C259  C267   1.40054       .     S
H261  C260   1.08427       .     S
C260  H261   1.08427       .     S
C262  C260   1.38253       .     S
C260  C262   1.38253       .     S
H263  C262   1.08421       .     S
C262  H263   1.08421       .     S
C264  C262   1.40037       .     S
C262  C264   1.40037       .     S
C265  C264   1.40123       .     S
C264  C265   1.40123       .     S
C269  C264   1.47079       .     S
C264  C269   1.47079       .     S
H266  C265   1.08514       .     S
C265  H266   1.08514       .     S
C267  C265   1.37991       .     S
C265  C267   1.37991       .     S
H268  C267   1.08387       .     S
C267  H268   1.08387       .     S
C270  C269   1.39985       .     S
C269  C270   1.39985       .     S
C277  C269   1.39873       .     S
C269  C277   1.39873       .     S
H271  C270   1.08431       .     S
C270  H271   1.08431       .     S
C272  C270   1.38152       .     S
C270  C272   1.38152       .     S
H273  C272   1.08450       .     S
C272  H273   1.08450       .     S
C274  C272   1.40067       .     S
C272  C274   1.40067       .     S
C275  C274   1.39926       .     S
C274  C275   1.39926       .     S
C279  C274   1.45221       .     S
C274  C279   1.45221       .     S
H276  C275   1.08399       .     S
C275  H276   1.08399       .     S
C277  C275   1.38121       .     S
C275  C277   1.38121       .     S
H278  C277   1.08319       .     S
C277  H278   1.08319       .     S
H280  C279   1.09583       .     S
C279  H280   1.09583       .     S
C285  O284   1.21176       .     S
O284  C285   1.21176       .     S
H286  C285   1.10968       .     S
C285  H286   1.10968       .     S
C287  C285   1.46609       .     S
C285  C287   1.46609       .     S
C288  C287   1.40054       .     S
C287  C288   1.40054       .     S
H289  C288   1.08387       .     S
C288  H289   1.08387       .     S
C296  H290   1.09584   1_455     S
H290  C296   1.09584   1_655     S
H292  C291   1.08431       .     S
C291  H292   1.08431       .     S
C293  C291   1.38152       .     S
C291  C293   1.38152       .     S
C308  C291   1.39985   1_554     S
C291  C308   1.39985   1_556     S
H294  C293   1.08450       .     S
C293  H294   1.08450       .     S
C295  C293   1.40067       .     S
C293  C295   1.40067       .     S
C296  C295   1.45221       .     S
C295  C296   1.45221       .     S
C309  C295   1.39926   1_554     S
C295  C309   1.39926   1_556     S
N297  C296   1.28320       .     S
C296  N297   1.28320       .     S
C298  N297   1.39964       .     S
N297  C298   1.39964       .     S
C299  C298   1.39625       .     S
C298  C299   1.39625       .     S
C433  C298   1.39965   1_655     S
C298  C433   1.39965   1_455     S
H300  C299   1.08347       .     S
C299  H300   1.08347       .     S
C302  C299   1.38620       .     S
C299  C302   1.38620       .     S
H303  C301   1.08253       .     S
C301  H303   1.08253       .     S
C305  C301   1.39185       .     S
C301  C305   1.39185       .     S
C411  C301   1.38620   1_556     S
C301  C411   1.38620   1_554     S
H304  C302   1.08253       .     S
C302  H304   1.08253       .     S
C306  C302   1.39185       .     S
C302  C306   1.39185       .     S
C307  C305   1.53166       .     S
C305  C307   1.53166       .     S
C413  C305   1.39833   1_556     S
C305  C413   1.39833   1_554     S
C307  C306   1.53166       .     S
C306  C307   1.53166       .     S
C431  C306   1.39833   1_655     S
C306  C431   1.39833   1_455     S
C328  C307   1.53166   1_655     S
C307  C328   1.53166   1_455     S
C374  C307   1.53166   1_655     S
C307  C374   1.53166   1_455     S
C310  C308   1.39873       .     S
C308  C310   1.39873       .     S
C320  C308   1.47079   1_565     S
C308  C320   1.47079   1_545     S
C310  C309   1.38121       .     S
C309  C310   1.38121       .     S
H325  C309   1.08399   1_655     S
C309  H325   1.08399   1_455     S
H311  C310   1.08319       .     S
C310  H311   1.08319       .     S
C313  O312   1.21176       .     S
O312  C313   1.21176       .     S
H314  C313   1.10968       .     S
C313  H314   1.10968       .     S
C315  C313   1.46609       .     S
C313  C315   1.46609       .     S
C316  C315   1.39899       .     S
C315  C316   1.39899       .     S
C322  C315   1.40054       .     S
C315  C322   1.40054       .     S
H317  C316   1.08427       .     S
C316  H317   1.08427       .     S
C318  C316   1.38254       .     S
C316  C318   1.38254       .     S
H319  C318   1.08421       .     S
C318  H319   1.08421       .     S
C320  C318   1.40037       .     S
C318  C320   1.40037       .     S
C321  C320   1.40123       .     S
C320  C321   1.40123       .     S
C322  C321   1.37990       .     S
C321  C322   1.37990       .     S
H324  C321   1.08514   1_545     S
C321  H324   1.08514   1_565     S
H323  C322   1.08387       .     S
C322  H323   1.08387       .     S
H327  C326   1.08253       .     S
C326  H327   1.08253       .     S
C328  C326   1.39185       .     S
C326  C328   1.39185       .     S
C342  C326   1.38620   1_556     S
C326  C342   1.38620   1_554     S
C344  C328   1.39833   1_556     S
C328  C344   1.39833   1_554     S
C330  C329   1.39985       .     S
C329  C330   1.39985       .     S
C337  C329   1.39873       .     S
C329  C337   1.39873       .     S
C355  C329   1.47079   1_556     S
C329  C355   1.47079   1_554     S
H331  C330   1.08431       .     S
C330  H331   1.08431       .     S
C332  C330   1.38152       .     S
C330  C332   1.38152       .     S
H333  C332   1.08450       .     S
C332  H333   1.08450       .     S
C334  C332   1.40067       .     S
C332  C334   1.40067       .     S
C335  C334   1.39926       .     S
C334  C335   1.39926       .     S
C338  C334   1.45221       .     S
C334  C338   1.45221       .     S
H336  C335   1.08399       .     S
C335  H336   1.08399       .     S
C337  C335   1.38121       .     S
C335  C337   1.38121       .     S
H348  C337   1.08319   1_556     S
C337  H348   1.08319   1_554     S
H339  C338   1.09583       .     S
C338  H339   1.09583       .     S
N340  C338   1.28320       .     S
C338  N340   1.28320       .     S
C341  N340   1.39964       .     S
N340  C341   1.39964       .     S
C342  C341   1.39625       .     S
C341  C342   1.39625       .     S
C346  C341   1.39965       .     S
C341  C346   1.39965       .     S
H343  C342   1.08347       .     S
C342  H343   1.08347       .     S
H345  C344   1.08440       .     S
C344  H345   1.08440       .     S
C346  C344   1.38183       .     S
C344  C346   1.38183       .     S
H347  C346   1.08321       .     S
C346  H347   1.08321       .     S
C350  O349   1.21176       .     S
O349  C350   1.21176       .     S
H351  C350   1.10968       .     S
C350  H351   1.10968       .     S
C352  C350   1.46609       .     S
C350  C352   1.46609       .     S
C353  C352   1.39900       .     S
C352  C353   1.39900       .     S
C358  C352   1.40054       .     S
C352  C358   1.40054       .     S
H354  C353   1.08427       .     S
C353  H354   1.08427       .     S
C360  C353   1.38253   1_554     S
C353  C360   1.38253   1_556     S
C356  C355   1.40123       .     S
C355  C356   1.40123       .     S
C360  C355   1.40037   1_554     S
C355  C360   1.40037   1_556     S
H357  C356   1.08514       .     S
C356  H357   1.08514       .     S
C358  C356   1.37990       .     S
C356  C358   1.37990       .     S
H359  C358   1.08387       .     S
C358  H359   1.08387       .     S
H361  C360   1.08421       .     S
C360  H361   1.08421       .     S
H363  C362   1.08431       .     S
C362  H363   1.08431       .     S
C364  C362   1.38152       .     S
C362  C364   1.38152       .     S
C393  C362   1.39985   1_554     S
C362  C393   1.39985   1_556     S
H365  C364   1.08450       .     S
C364  H365   1.08450       .     S
C366  C364   1.40067       .     S
C364  C366   1.40067       .     S
C367  C366   1.45221       .     S
C366  C367   1.45221       .     S
C394  C366   1.39926   1_554     S
C366  C394   1.39926   1_556     S
N368  C367   1.28320       .     S
C367  N368   1.28320       .     S
H379  C367   1.09583   1_455     S
C367  H379   1.09583   1_655     S
C369  N368   1.39964       .     S
N368  C369   1.39964       .     S
C370  C369   1.39625       .     S
C369  C370   1.39625       .     S
C377  C369   1.39965   1_455     S
C369  C377   1.39965   1_655     S
H371  C370   1.08347       .     S
C370  H371   1.08347       .     S
C372  C370   1.38620       .     S
C370  C372   1.38620       .     S
H373  C372   1.08253       .     S
C372  H373   1.08253       .     S
C374  C372   1.39185       .     S
C372  C374   1.39185       .     S
C375  C374   1.39833   1_455     S
C374  C375   1.39833   1_655     S
H376  C375   1.08440       .     S
C375  H376   1.08440       .     S
C377  C375   1.38183       .     S
C375  C377   1.38183       .     S
H378  C377   1.08321       .     S
C377  H378   1.08321       .     S
C381  O380   1.21176       .     S
O380  C381   1.21176       .     S
H382  C381   1.10968       .     S
C381  H382   1.10968       .     S
C383  C381   1.46609       .     S
C381  C383   1.46609       .     S
C384  C383   1.39899       .     S
C383  C384   1.39899       .     S
C391  C383   1.40054       .     S
C383  C391   1.40054       .     S
H385  C384   1.08427       .     S
C384  H385   1.08427       .     S
C386  C384   1.38254       .     S
C384  C386   1.38254       .     S
H387  C386   1.08421       .     S
C386  H387   1.08421       .     S
C388  C386   1.40036       .     S
C386  C388   1.40036       .     S
C389  C388   1.40123       .     S
C388  C389   1.40123       .     S
C393  C388   1.47079       .     S
C388  C393   1.47079       .     S
H390  C389   1.08514       .     S
C389  H390   1.08514       .     S
C391  C389   1.37991       .     S
C389  C391   1.37991       .     S
H392  C391   1.08387       .     S
C391  H392   1.08387       .     S
C395  C393   1.39873       .     S
C393  C395   1.39873       .     S
C395  C394   1.38121       .     S
C394  C395   1.38121       .     S
H397  C394   1.08399   1_455     S
C394  H397   1.08399   1_655     S
H396  C395   1.08319       .     S
C395  H396   1.08319       .     S
C399  C398   1.39985       .     S
C398  C399   1.39985       .     S
C406  C398   1.39873       .     S
C398  C406   1.39873       .     S
C424  C398   1.47079   1_556     S
C398  C424   1.47079   1_554     S
H400  C399   1.08431       .     S
C399  H400   1.08431       .     S
C401  C399   1.38152       .     S
C399  C401   1.38152       .     S
H402  C401   1.08450       .     S
C401  H402   1.08450       .     S
C403  C401   1.40067       .     S
C401  C403   1.40067       .     S
C404  C403   1.39926       .     S
C403  C404   1.39926       .     S
C407  C403   1.45221       .     S
C403  C407   1.45221       .     S
H405  C404   1.08399       .     S
C404  H405   1.08399       .     S
C406  C404   1.38121       .     S
C404  C406   1.38121       .     S
H417  C406   1.08319   1_556     S
C406  H417   1.08319   1_554     S
H408  C407   1.09584       .     S
C407  H408   1.09584       .     S
N409  C407   1.28320       .     S
C407  N409   1.28320       .     S
C410  N409   1.39964       .     S
N409  C410   1.39964       .     S
C411  C410   1.39625       .     S
C410  C411   1.39625       .     S
C415  C410   1.39965       .     S
C410  C415   1.39965       .     S
H412  C411   1.08347       .     S
C411  H412   1.08347       .     S
H414  C413   1.08440       .     S
C413  H414   1.08440       .     S
C415  C413   1.38183       .     S
C413  C415   1.38183       .     S
H416  C415   1.08321       .     S
C415  H416   1.08321       .     S
C419  O418   1.21176       .     S
O418  C419   1.21176       .     S
H420  C419   1.10968       .     S
C419  H420   1.10968       .     S
C421  C419   1.46609       .     S
C419  C421   1.46609       .     S
C422  C421   1.39899       .     S
C421  C422   1.39899       .     S
C427  C421   1.40054       .     S
C421  C427   1.40054       .     S
H423  C422   1.08427       .     S
C422  H423   1.08427       .     S
C429  C422   1.38253   1_554     S
C422  C429   1.38253   1_556     S
C425  C424   1.40123       .     S
C424  C425   1.40123       .     S
C429  C424   1.40037   1_554     S
C424  C429   1.40037   1_556     S
H426  C425   1.08514       .     S
C425  H426   1.08514       .     S
C427  C425   1.37991       .     S
C425  C427   1.37991       .     S
H428  C427   1.08387       .     S
C427  H428   1.08387       .     S
H430  C429   1.08421       .     S
C429  H430   1.08421       .     S
H432  C431   1.08440       .     S
C431  H432   1.08440       .     S
C433  C431   1.38183       .     S
C431  C433   1.38183       .     S
H434  C433   1.08321       .     S
C433  H434   1.08321       .     S
C436  O435   1.21176       .     S
O435  C436   1.21176       .     S
H437  C436   1.10968       .     S
C436  H437   1.10968       .     S
C438  C436   1.46609       .     S
C436  C438   1.46609       .     S
C439  C438   1.39899       .     S
C438  C439   1.39899       .     S
C445  C438   1.40054       .     S
C438  C445   1.40054       .     S
H440  C439   1.08427       .     S
C439  H440   1.08427       .     S
C441  C439   1.38253       .     S
C439  C441   1.38253       .     S
H442  C441   1.08421       .     S
C441  H442   1.08421       .     S
C443  C441   1.40037       .     S
C441  C443   1.40037       .     S
C444  C443   1.40123       .     S
C443  C444   1.40123       .     S
C447  C443   1.47079   1_565     S
C443  C447   1.47079   1_545     S
C445  C444   1.37991       .     S
C444  C445   1.37991       .     S
H579  C444   1.08514   1_565     S
C444  H579   1.08514   1_545     S
H446  C445   1.08387       .     S
C445  H446   1.08387       .     S
C449  C447   1.39873       .     S
C447  C449   1.39873       .     S
C452  C447   1.39985   1_554     S
C447  C452   1.39985   1_556     S
C449  C448   1.38121       .     S
C448  C449   1.38121       .     S
H451  C448   1.08399   1_455     S
C448  H451   1.08399   1_655     S
C456  C448   1.39926   1_554     S
C448  C456   1.39926   1_556     S
H450  C449   1.08319       .     S
C449  H450   1.08319       .     S
H453  C452   1.08431       .     S
C452  H453   1.08431       .     S
C454  C452   1.38152       .     S
C452  C454   1.38152       .     S
H455  C454   1.08450       .     S
C454  H455   1.08450       .     S
C456  C454   1.40067       .     S
C454  C456   1.40067       .     S
C457  C456   1.45221       .     S
C456  C457   1.45221       .     S
N458  C457   1.28320       .     S
C457  N458   1.28320       .     S
H578  C457   1.09583   1_455     S
C457  H578   1.09583   1_655     S
C459  N458   1.39964       .     S
N458  C459   1.39964       .     S
C460  C459   1.39625       .     S
C459  C460   1.39625       .     S
C467  C459   1.39965   1_455     S
C459  C467   1.39965   1_655     S
H461  C460   1.08347       .     S
C460  H461   1.08347       .     S
C462  C460   1.38620       .     S
C460  C462   1.38620       .     S
H463  C462   1.08253       .     S
C462  H463   1.08253       .     S
C464  C462   1.39185       .     S
C462  C464   1.39185       .     S
C465  C464   1.39833   1_455     S
C464  C465   1.39833   1_655     S
C485  C464   1.53166   1_455     S
C464  C485   1.53166   1_655     S
H466  C465   1.08440       .     S
C465  H466   1.08440       .     S
C467  C465   1.38183       .     S
C465  C467   1.38183       .     S
H468  C467   1.08321       .     S
C467  H468   1.08321       .     S
H470  C469   1.08431       .     S
C469  H470   1.08431       .     S
C471  C469   1.38152       .     S
C469  C471   1.38152       .     S
C499  C469   1.39985   1_556     S
C469  C499   1.39985   1_554     S
H472  C471   1.08450       .     S
C471  H472   1.08450       .     S
C473  C471   1.40067       .     S
C471  C473   1.40067       .     S
C474  C473   1.45221       .     S
C473  C474   1.45221       .     S
C500  C473   1.39926   1_556     S
C473  C500   1.39926   1_554     S
N475  C474   1.28320       .     S
C474  N475   1.28320       .     S
H541  C474   1.09583   1_655     S
C474  H541   1.09584   1_455     S
C476  N475   1.39964       .     S
N475  C476   1.39964       .     S
C477  C476   1.39625       .     S
C476  C477   1.39625       .     S
C539  C476   1.39965   1_655     S
C476  C539   1.39965   1_455     S
H478  C477   1.08347       .     S
C477  H478   1.08347       .     S
C479  C477   1.38620       .     S
C477  C479   1.38620       .     S
H481  C479   1.08253       .     S
C479  H481   1.08253       .     S
C483  C479   1.39185       .     S
C479  C483   1.39185       .     S
H482  C480   1.08253       .     S
C480  H482   1.08253       .     S
C484  C480   1.39185       .     S
C480  C484   1.39185       .     S
C517  C480   1.38620   1_554     S
C480  C517   1.38620   1_556     S
C485  C483   1.53166       .     S
C483  C485   1.53166       .     S
C537  C483   1.39833   1_655     S
C483  C537   1.39833   1_455     S
C485  C484   1.53166       .     S
C484  C485   1.53166       .     S
C519  C484   1.39833   1_554     S
C484  C519   1.39833   1_556     S
C544  C485   1.53166   1_655     S
C485  C544   1.53166   1_455     S
C487  O486   1.21176       .     S
O486  C487   1.21176       .     S
H488  C487   1.10968       .     S
C487  H488   1.10968       .     S
C489  C487   1.46609       .     S
C487  C489   1.46609       .     S
C490  C489   1.39899       .     S
C489  C490   1.39899       .     S
C497  C489   1.40054       .     S
C489  C497   1.40054       .     S
H491  C490   1.08427       .     S
C490  H491   1.08427       .     S
C492  C490   1.38253       .     S
C490  C492   1.38253       .     S
H493  C492   1.08421       .     S
C492  H493   1.08421       .     S
C494  C492   1.40037       .     S
C492  C494   1.40037       .     S
C495  C494   1.40123       .     S
C494  C495   1.40123       .     S
C499  C494   1.47079       .     S
C494  C499   1.47079       .     S
H496  C495   1.08514       .     S
C495  H496   1.08514       .     S
C497  C495   1.37990       .     S
C495  C497   1.37990       .     S
H498  C497   1.08387       .     S
C497  H498   1.08387       .     S
C501  C499   1.39873       .     S
C499  C501   1.39873       .     S
C501  C500   1.38121       .     S
C500  C501   1.38121       .     S
H503  C500   1.08399   1_655     S
C500  H503   1.08399   1_455     S
H502  C501   1.08319       .     S
C501  H502   1.08319       .     S
C505  C504   1.39985       .     S
C504  C505   1.39985       .     S
C512  C504   1.39873       .     S
C504  C512   1.39873       .     S
C530  C504   1.47079   1_554     S
C504  C530   1.47079   1_556     S
H506  C505   1.08431       .     S
C505  H506   1.08431       .     S
C507  C505   1.38152       .     S
C505  C507   1.38152       .     S
H508  C507   1.08450       .     S
C507  H508   1.08450       .     S
C509  C507   1.40067       .     S
C507  C509   1.40067       .     S
C510  C509   1.39926       .     S
C509  C510   1.39926       .     S
C513  C509   1.45221       .     S
C509  C513   1.45221       .     S
H511  C510   1.08399       .     S
C510  H511   1.08399       .     S
C512  C510   1.38121       .     S
C510  C512   1.38121       .     S
H523  C512   1.08319   1_554     S
C512  H523   1.08319   1_556     S
H514  C513   1.09584       .     S
C513  H514   1.09584       .     S
N515  C513   1.28320       .     S
C513  N515   1.28320       .     S
C516  N515   1.39964       .     S
N515  C516   1.39964       .     S
C517  C516   1.39625       .     S
C516  C517   1.39625       .     S
C521  C516   1.39965       .     S
C516  C521   1.39965       .     S
H518  C517   1.08347       .     S
C517  H518   1.08347       .     S
H520  C519   1.08440       .     S
C519  H520   1.08440       .     S
C521  C519   1.38183       .     S
C519  C521   1.38183       .     S
H522  C521   1.08321       .     S
C521  H522   1.08321       .     S
C525  O524   1.21176       .     S
O524  C525   1.21176       .     S
H526  C525   1.10968       .     S
C525  H526   1.10968       .     S
C527  C525   1.46609       .     S
C525  C527   1.46609       .     S
C528  C527   1.39899       .     S
C527  C528   1.39899       .     S
C533  C527   1.40054       .     S
C527  C533   1.40054       .     S
H529  C528   1.08427       .     S
C528  H529   1.08427       .     S
C535  C528   1.38253   1_556     S
C528  C535   1.38253   1_554     S
C531  C530   1.40123       .     S
C530  C531   1.40123       .     S
C535  C530   1.40037   1_556     S
C530  C535   1.40037   1_554     S
H532  C531   1.08514       .     S
C531  H532   1.08514       .     S
C533  C531   1.37991       .     S
C531  C533   1.37991       .     S
H534  C533   1.08387       .     S
C533  H534   1.08387       .     S
H536  C535   1.08421       .     S
C535  H536   1.08421       .     S
H538  C537   1.08440       .     S
C537  H538   1.08440       .     S
C539  C537   1.38183       .     S
C537  C539   1.38183       .     S
H540  C539   1.08321       .     S
C539  H540   1.08321       .     S
H543  C542   1.08253       .     S
C542  H543   1.08253       .     S
C544  C542   1.39185       .     S
C542  C544   1.39185       .     S
C558  C542   1.38620   1_554     S
C542  C558   1.38620   1_556     S
C560  C544   1.39833   1_554     S
C544  C560   1.39833   1_556     S
C546  C545   1.39985       .     S
C545  C546   1.39985       .     S
C553  C545   1.39873       .     S
C545  C553   1.39873       .     S
C571  C545   1.47079   1_554     S
C545  C571   1.47079   1_556     S
H547  C546   1.08431       .     S
C546  H547   1.08431       .     S
C548  C546   1.38152       .     S
C546  C548   1.38152       .     S
H549  C548   1.08450       .     S
C548  H549   1.08450       .     S
C550  C548   1.40067       .     S
C548  C550   1.40067       .     S
C551  C550   1.39926       .     S
C550  C551   1.39926       .     S
C554  C550   1.45221       .     S
C550  C554   1.45221       .     S
H552  C551   1.08399       .     S
C551  H552   1.08399       .     S
C553  C551   1.38121       .     S
C551  C553   1.38121       .     S
H564  C553   1.08319   1_554     S
C553  H564   1.08319   1_556     S
H555  C554   1.09583       .     S
C554  H555   1.09583       .     S
N556  C554   1.28320       .     S
C554  N556   1.28320       .     S
C557  N556   1.39964       .     S
N556  C557   1.39964       .     S
C558  C557   1.39625       .     S
C557  C558   1.39625       .     S
C562  C557   1.39965       .     S
C557  C562   1.39965       .     S
H559  C558   1.08347       .     S
C558  H559   1.08347       .     S
H561  C560   1.08440       .     S
C560  H561   1.08440       .     S
C562  C560   1.38183       .     S
C560  C562   1.38183       .     S
H563  C562   1.08321       .     S
C562  H563   1.08321       .     S
C566  O565   1.21176       .     S
O565  C566   1.21176       .     S
H567  C566   1.10968       .     S
C566  H567   1.10968       .     S
C568  C566   1.46609       .     S
C566  C568   1.46609       .     S
C569  C568   1.39900       .     S
C568  C569   1.39900       .     S
C574  C568   1.40054       .     S
C568  C574   1.40054       .     S
H570  C569   1.08427       .     S
C569  H570   1.08427       .     S
C576  C569   1.38253   1_556     S
C569  C576   1.38253   1_554     S
C572  C571   1.40123       .     S
C571  C572   1.40123       .     S
C576  C571   1.40037   1_556     S
C571  C576   1.40037   1_554     S
H573  C572   1.08514       .     S
C572  H573   1.08514       .     S
C574  C572   1.37991       .     S
C572  C574   1.37991       .     S
H575  C574   1.08387       .     S
C574  H575   1.08387       .     S
H577  C576   1.08421       .     S
C576  H577   1.08421       .     S
