data_I
_chemical_name_common  '/data/user2/wty/HOF/MOFDiff/mofdiff/data/test/257-rub-hofs'
_cell_length_a 30.10690
_cell_length_b 30.05080
_cell_length_c 30.71270
_cell_angle_alpha 90.00000
_cell_angle_beta  90.00000
_cell_angle_gamma 90.00000
_space_group_name_H-M_alt      'P 1'


loop_
_space_group_symop_operation_xyz
  'x, y, z' 

loop_
_atom_site_label
_atom_site_fract_x
_atom_site_fract_y
_atom_site_fract_z
_atom_site_type_symbol
H0     0.19699      0.0  0.99999     H
Ru1        0.0      0.0      0.0    Ru
N2         0.0  0.93207      0.0     N
C3         0.0  0.83958      0.0     C
C4         0.0  0.90895  0.95995     C
C5         0.0  0.90895  0.04005     C
C6         0.0   0.8627  0.04005     C
C7         0.0   0.8627  0.95995     C
H8         0.0  0.92723  0.92828     H
H9         0.0  0.84442  0.07172     H
H10        0.0  0.84442  0.92828     H
N11    0.93207      0.0      0.0     N
C12    0.83958      0.0      0.0     C
C13    0.90895  0.95995      0.0     C
C14    0.90895  0.04005      0.0     C
C15     0.8627  0.04005      0.0     C
C16     0.8627  0.95995      0.0     C
H17    0.92723  0.92828      0.0     H
H18    0.84442  0.07172      0.0     H
H19    0.84442  0.92828      0.0     H
N20        0.0      0.0  0.06793     N
C21        0.0      0.0  0.16042     C
C22        0.0  0.95995  0.09105     C
C23        0.0  0.04005  0.09105     C
C24        0.0  0.04005   0.1373     C
C25        0.0  0.95995   0.1373     C
H26        0.0  0.07172  0.07277     H
H27        0.0  0.07172  0.15558     H
H28        0.0  0.92828  0.15558     H
N29        0.0  0.06793      0.0     N
C30        0.0  0.16042      0.0     C
C31    0.95995  0.09105      0.0     C
C32    0.04005  0.09105      0.0     C
C33    0.04005   0.1373      0.0     C
C34    0.95995   0.1373      0.0     C
H35    0.07172  0.07277      0.0     H
H36    0.07172  0.15558      0.0     H
H37    0.92828  0.15558      0.0     H
N38        0.0      0.0  0.93207     N
C39        0.0      0.0  0.83958     C
C40    0.95995      0.0  0.90895     C
C41    0.04005      0.0  0.90895     C
C42    0.04005      0.0   0.8627     C
C43    0.95995      0.0   0.8627     C
H44    0.92828      0.0  0.92723     H
H45    0.07172      0.0  0.84442     H
H46    0.92828      0.0  0.84442     H
N47    0.06793      0.0      0.0     N
C48    0.16042      0.0      0.0     C
C49    0.09105      0.0  0.04005     C
C50    0.09105      0.0  0.95995     C
C51     0.1373      0.0  0.95995     C
C52     0.1373      0.0  0.04005     C
H53    0.07277      0.0  0.07172     H
H54    0.15558      0.0  0.92828     H
H55    0.15558      0.0  0.07172     H
C56        0.0      0.0   0.2115     C
C57        0.0   0.2115      0.0     C
C58     0.2115      0.0      0.0     C
C59        0.0      0.0  0.78849     C
H60        0.0  0.99999  0.80301     H
O61    0.02832  0.97168  0.76537     O
H62    0.04789  0.95211  0.78135     H
H63    0.02832  0.97168   0.7288     H
C64        0.0      0.0  0.33088     C
N65    0.02832  0.97168  0.30776     N
N66    0.97168  0.02832  0.30776     N
H67    0.05071  0.94929  0.32604     H
H68    0.94929  0.05071  0.32604     H
C69        0.0      0.0  0.38196     C
C70        0.0      0.0  0.47446     C
C71    0.02832  0.97168  0.40509     C
C72    0.97168  0.02832  0.40509     C
C73    0.97168  0.02832  0.45133     C
C74    0.02832  0.97168  0.45133     C
H75    0.05071  0.94929   0.3868     H
H76    0.94929  0.05071   0.3868     H
H77    0.94929  0.05071  0.46962     H
H78    0.05071  0.94929  0.46962     H
C79        0.0      0.0  0.66911     C
N80    0.97168  0.02832  0.69223     N
N81    0.02832  0.97168  0.69223     N
H82      0.951    0.049  0.67535     H
H83      0.049    0.951  0.67535     H
C84        0.0      0.0  0.61803     C
C85        0.0      0.0  0.52554     C
C86    0.97168  0.02832  0.59491     C
C87    0.02832  0.97168  0.59491     C
C88    0.02832  0.97168  0.54866     C
C89    0.97168  0.02832  0.54866     C
H90    0.94929  0.05071  0.61319     H
H91    0.05071  0.94929  0.61319     H
H92    0.05071  0.94929  0.53038     H
H93    0.94929  0.05071  0.53038     H
O94    0.97168  0.02832  0.23463     O
H95    0.94929  0.05071  0.21634     H
H96    0.97168  0.02832  0.27119     H
O97    0.02832  0.97168  0.23463     O
H98    0.05071  0.94929  0.21634     H
H99    0.02832  0.97168  0.27119     H
O100   0.97168  0.02832  0.76537     O
H101   0.95211  0.04789  0.78135     H
H102   0.97168  0.02832   0.7288     H
O103   0.97168  0.23463  0.97168     O
H104   0.95211  0.21865  0.95211     H
H105   0.97168  0.27119  0.97168     H
C106       0.0  0.33088      0.0     C
N107   0.02832  0.30776  0.02832     N
N108   0.97168  0.30776  0.97168     N
H109     0.049  0.32464    0.049     H
H110     0.951  0.32464    0.951     H
C111       0.0  0.38196      0.0     C
C112       0.0  0.47446      0.0     C
C113   0.02832  0.40509  0.02832     C
C114   0.97168  0.40509  0.97168     C
C115   0.97168  0.45133  0.97168     C
C116   0.02832  0.45133  0.02832     C
H117   0.05071   0.3868  0.05071     H
H118   0.94929   0.3868  0.94929     H
H119   0.94929  0.46962  0.94929     H
H120   0.05071  0.46962  0.05071     H
H121   0.97168   0.7288  0.97168     H
H122   0.02832   0.7288  0.02832     H
C123       0.0  0.66911      0.0     C
N124   0.97168  0.69223  0.97168     N
N125   0.02832  0.69223  0.02832     N
H126     0.951  0.67535    0.951     H
H127     0.049  0.67535    0.049     H
C128       0.0  0.61803      0.0     C
C129       0.0  0.52554      0.0     C
C130   0.97168  0.59491  0.97168     C
C131   0.02832  0.59491  0.02832     C
C132   0.02832  0.54866  0.02832     C
C133   0.97168  0.54866  0.97168     C
H134   0.94929  0.61319  0.94929     H
H135   0.05071  0.61319  0.05071     H
H136   0.05071  0.53038  0.05071     H
H137   0.94929  0.53038  0.94929     H
O138   0.97168  0.76537  0.97168     O
H139   0.95211  0.78135  0.95211     H
C140       0.0  0.78849      0.0     C
O141   0.02832  0.76537  0.02832     O
H142   0.04789  0.78135  0.04789     H
O143   0.02832  0.23463  0.02832     O
H144   0.04789  0.21865  0.04789     H
H145   0.02832  0.27119  0.02832     H
O146   0.23463  0.02832  0.97168     O
H147   0.21865  0.04789  0.95211     H
H148   0.27119  0.02832  0.97168     H
C149   0.33088      0.0      0.0     C
N150   0.30776  0.02832  0.97168     N
N151   0.30776  0.97168  0.02832     N
H152   0.32464    0.049    0.951     H
H153   0.32464    0.951    0.049     H
C154   0.38196      0.0      0.0     C
C155   0.47446      0.0      0.0     C
C156   0.40509  0.02832  0.97168     C
C157   0.40509  0.97168  0.02832     C
C158   0.45133  0.97168  0.02832     C
C159   0.45133  0.02832  0.97168     C
H160    0.3868  0.05071  0.94929     H
H161    0.3868  0.94929  0.05071     H
H162   0.46962  0.94929  0.05071     H
H163   0.46962  0.05071  0.94929     H
C164   0.66911      0.0      0.0     C
N165   0.69223  0.97168  0.02832     N
N166   0.69223  0.02832  0.97168     N
H167   0.67535    0.951    0.049     H
H168   0.67535    0.049    0.951     H
C169   0.61803      0.0      0.0     C
C170   0.52554      0.0      0.0     C
C171   0.59491  0.97168  0.02832     C
C172   0.59491  0.02832  0.97168     C
C173   0.54866  0.02832  0.97168     C
C174   0.54866  0.97168  0.02832     C
H175   0.61319  0.94929  0.05071     H
H176   0.61319  0.05071  0.94929     H
H177   0.53038  0.05071  0.94929     H
H178   0.53038  0.94929  0.05071     H
O179   0.23463  0.97168  0.02832     O
H180   0.21865  0.95211  0.04789     H
H181   0.27119  0.97168  0.02832     H
O182   0.76537  0.97168  0.02832     O
H183   0.78135  0.95211  0.04789     H
H184    0.7288  0.97168  0.02832     H
C185   0.78849      0.0      0.0     C
O186   0.76537  0.02832  0.97168     O
H187   0.78135  0.04789  0.95211     H
H188    0.7288  0.02832  0.97168     H
H189       0.0  0.19699  0.99999     H
H190   0.99999      0.0  0.19699     H
loop_
_geom_bond_atom_site_label_1
_geom_bond_atom_site_label_2
_geom_bond_distance
_geom_bond_site_symmetry_2
_ccdc_geom_bond_type
H63   N81    1.12317       .     S
N81   H63    1.12317       .     S
H96   N66    1.12316       .     S
N66   H96    1.12316       .     S
H99   N65    1.12316       .     S
N65   H99    1.12316       .     S
H102  N80    1.12317       .     S
N80   H102   1.12317       .     S
H105  N108   1.09896       .     S
N108  H105   1.09896       .     S
H121  N124   1.09896       .     S
N124  H121   1.09896       .     S
H122  N125   1.09896       .     S
N125  H122   1.09896       .     S
H145  N107   1.09896       .     S
N107  H145   1.09896       .     S
H148  N150   1.10101       .     S
N150  H148   1.10101       .     S
H181  N151   1.10101       .     S
N151  H181   1.10101       .     S
H184  N165   1.10101       .     S
N165  H184   1.10101       .     S
H188  N166   1.10101       .     S
N166  H188   1.10101       .     S
H0    C48    1.10101   1_556     S
C48   H0     1.10101   1_554     S
H0    C58    0.43685   1_556     S
C58   H0     0.43685   1_554     S
Ru1   N2     2.04135   1_545     S
N2    Ru1    2.04135   1_565     S
Ru1   N11    2.04516   1_455     S
N11   Ru1    2.04516   1_655     S
Ru1   N20    2.08631       .     S
N20   Ru1    2.08631       .     S
Ru1   N29    2.04135       .     S
N29   Ru1    2.04135       .     S
Ru1   N38    2.08631   1_554     S
N38   Ru1    2.08631   1_556     S
Ru1   N47    2.04516       .     S
N47   Ru1    2.04516       .     S
N2    C4     1.41270   1_554     S
C4    N2     1.41270   1_556     S
N2    C5     1.41270       .     S
C5    N2     1.41270       .     S
C3    C6     1.41270       .     S
C6    C3     1.41270       .     S
C3    C7     1.41270   1_554     S
C7    C3     1.41270   1_556     S
C3    C140   1.53530       .     S
C140  C3     1.53530       .     S
C4    C7     1.38985       .     S
C7    C4     1.38985       .     S
C4    H8     1.11707       .     S
H8    C4     1.11707       .     S
C5    C6     1.38985       .     S
C6    C5     1.38985       .     S
C6    H9     1.11707       .     S
H9    C6     1.11707       .     S
C7    H10    1.11707       .     S
H10   C7     1.11707       .     S
N11   C13    1.39033   1_545     S
C13   N11    1.39033   1_565     S
N11   C14    1.39033       .     S
C14   N11    1.39033       .     S
C12   C15    1.39033       .     S
C15   C12    1.39033       .     S
C12   C16    1.39033   1_545     S
C16   C12    1.39033   1_565     S
C12   C185   1.53816       .     S
C185  C12    1.53816       .     S
C13   C16    1.39244       .     S
C16   C13    1.39244       .     S
C13   H17    1.09938       .     S
H17   C13    1.09938       .     S
C14   C15    1.39244       .     S
C15   C14    1.39244       .     S
C15   H18    1.09938       .     S
H18   C15    1.09938       .     S
C16   H19    1.09938       .     S
H19   C16    1.09938       .     S
N20   C22    1.39739   1_545     S
C22   N20    1.39739   1_565     S
N20   C23    1.39739       .     S
C23   N20    1.39739       .     S
C21   C24    1.39739       .     S
C24   C21    1.39739       .     S
C21   C25    1.39739   1_545     S
C25   C21    1.39739   1_565     S
C21   C56    1.56880       .     S
C56   C21    1.56880       .     S
C21   H190   1.12316   1_455     S
H190  C21    1.12316   1_655     S
C22   C25    1.42046       .     S
C25   C22    1.42046       .     S
C23   C24    1.42046       .     S
C24   C23    1.42046       .     S
C23   H26    1.10497       .     S
H26   C23    1.10497       .     S
C24   H27    1.10497       .     S
H27   C24    1.10497       .     S
C25   H28    1.10497       .     S
H28   C25    1.10497       .     S
N29   C31    1.39163   1_455     S
C31   N29    1.39163   1_655     S
N29   C32    1.39162       .     S
C32   N29    1.39162       .     S
C30   C33    1.39163       .     S
C33   C30    1.39163       .     S
C30   C34    1.39163   1_455     S
C34   C30    1.39163   1_655     S
C30   C57    1.53500       .     S
C57   C30    1.53500       .     S
C30   H189   1.09896   1_554     S
H189  C30    1.09896   1_556     S
C31   C34    1.38985       .     S
C34   C31    1.38985       .     S
C32   C33    1.38985       .     S
C33   C32    1.38985       .     S
C32   H35    1.10041       .     S
H35   C32    1.10041       .     S
C33   H36    1.10041       .     S
H36   C33    1.10041       .     S
C34   H37    1.10041       .     S
H37   C34    1.10041       .     S
N38   C40    1.39933   1_455     S
C40   N38    1.39933   1_655     S
N38   C41    1.39933       .     S
C41   N38    1.39933       .     S
C39   C42    1.39933       .     S
C42   C39    1.39933       .     S
C39   C43    1.39933   1_455     S
C43   C39    1.39933   1_655     S
C39   C59    1.56911       .     S
C59   C39    1.56911       .     S
C39   H60    1.12316   1_545     S
H60   C39    1.12316   1_565     S
C40   C43    1.42046       .     S
C43   C40    1.42046       .     S
C40   H44    1.10650       .     S
H44   C40    1.10650       .     S
C41   C42    1.42046       .     S
C42   C41    1.42046       .     S
C42   H45    1.10650       .     S
H45   C42    1.10650       .     S
C43   H46    1.10650       .     S
H46   C43    1.10650       .     S
N47   C49    1.41334       .     S
C49   N47    1.41334       .     S
N47   C50    1.41334   1_554     S
C50   N47    1.41334   1_556     S
C48   C51    1.41334   1_554     S
C51   C48    1.41334   1_556     S
C48   C52    1.41334       .     S
C52   C48    1.41334       .     S
C48   C58    1.53786       .     S
C58   C48    1.53786       .     S
C49   C52    1.39244       .     S
C52   C49    1.39244       .     S
C49   H53    1.11758       .     S
H53   C49    1.11758       .     S
C50   C51    1.39244       .     S
C51   C50    1.39244       .     S
C51   H54    1.11758       .     S
H54   C51    1.11758       .     S
C52   H55    1.11758       .     S
H55   C52    1.11758       .     S
C56   O94    1.39853   1_455     S
O94   C56    1.39853   1_655     S
C56   O97    1.39853   1_545     S
O97   C56    1.39853   1_565     S
C56   H190   0.44564   1_455     S
H190  C56    0.44564   1_655     S
C57   O103   1.40236   1_454     S
O103  C57    1.40237   1_656     S
C57   O143   1.40236       .     S
O143  C57    1.40236       .     S
C57   H189   0.43604   1_554     S
H189  C57    0.43604   1_556     S
C58   O146   1.40204   1_554     S
O146  C58    1.40204   1_556     S
C58   O179   1.40204   1_545     S
O179  C58    1.40204   1_565     S
C59   H60    0.44595   1_545     S
H60   C59    0.44595   1_565     S
C59   O61    1.39837   1_545     S
O61   C59    1.39837   1_565     S
C59   O100   1.39837   1_455     S
O100  C59    1.39837   1_655     S
O61   H62    0.96637       .     S
H62   O61    0.96637       .     S
O61   H63    1.12316       .     S
H63   O61    1.12316       .     S
H63   N81    1.12317       .     S
N81   H63    1.12317       .     S
C64   N65    1.39838   1_545     S
N65   C64    1.39838   1_565     S
C64   N66    1.39838   1_455     S
N66   C64    1.39838   1_655     S
C64   C69    1.56880       .     S
C69   C64    1.56880       .     S
N65   H67    1.10558       .     S
H67   N65    1.10558       .     S
N65   H99    1.12316       .     S
H99   N65    1.12316       .     S
N66   H68    1.10558       .     S
H68   N66    1.10558       .     S
N66   H96    1.12316       .     S
H96   N66    1.12316       .     S
C69   C71    1.39853   1_545     S
C71   C69    1.39853   1_565     S
C69   C72    1.39853   1_455     S
C72   C69    1.39853   1_655     S
C70   C73    1.39853   1_455     S
C73   C70    1.39853   1_655     S
C70   C74    1.39853   1_545     S
C74   C70    1.39853   1_565     S
C70   C85    1.56880       .     S
C85   C70    1.56880       .     S
C71   C74    1.42016       .     S
C74   C71    1.42016       .     S
C71   H75    1.10574       .     S
H75   C71    1.10574       .     S
C72   C73    1.42016       .     S
C73   C72    1.42016       .     S
C72   H76    1.10574       .     S
H76   C72    1.10574       .     S
C73   H77    1.10574       .     S
H77   C73    1.10574       .     S
C74   H78    1.10574       .     S
H78   C74    1.10574       .     S
C79   N80    1.39837   1_455     S
N80   C79    1.39837   1_655     S
C79   N81    1.39837   1_545     S
N81   C79    1.39837   1_565     S
C79   C84    1.56880       .     S
C84   C79    1.56880       .     S
N80   H82    1.02108       .     S
H82   N80    1.02108       .     S
N80   H102   1.12317       .     S
H102  N80    1.12317       .     S
N81   H83    1.02108       .     S
H83   N81    1.02108       .     S
C84   C86    1.39837   1_455     S
C86   C84    1.39837   1_655     S
C84   C87    1.39837   1_545     S
C87   C84    1.39837   1_565     S
C85   C88    1.39837   1_545     S
C88   C85    1.39837   1_565     S
C85   C89    1.39837   1_455     S
C89   C85    1.39837   1_655     S
C86   C89    1.42046       .     S
C89   C86    1.42046       .     S
C86   H90    1.10558       .     S
H90   C86    1.10558       .     S
C87   C88    1.42046       .     S
C88   C87    1.42046       .     S
C87   H91    1.10558       .     S
H91   C87    1.10558       .     S
C88   H92    1.10558       .     S
H92   C88    1.10558       .     S
C89   H93    1.10558       .     S
H93   C89    1.10558       .     S
O94   H95    1.10574       .     S
H95   O94    1.10574       .     S
O94   H96    1.12286       .     S
H96   O94    1.12286       .     S
O97   H98    1.10574       .     S
H98   O97    1.10574       .     S
O97   H99    1.12286       .     S
H99   O97    1.12286       .     S
O100  H101   0.96637       .     S
H101  O100   0.96637       .     S
O100  H102   1.12316       .     S
H102  O100   1.12316       .     S
O103  H104   0.96902       .     S
H104  O103   0.96902       .     S
O103  H105   1.09866       .     S
H105  O103   1.09866       .     S
H105  N108   1.09896       .     S
N108  H105   1.09896       .     S
C106  N107   1.40222       .     S
N107  C106   1.40222       .     S
C106  N108   1.40222   1_454     S
N108  C106   1.40222   1_656     S
C106  C111   1.53500       .     S
C111  C106   1.53500       .     S
N107  H109   1.02389       .     S
H109  N107   1.02389       .     S
N107  H145   1.09896       .     S
H145  N107   1.09896       .     S
N108  H110   1.02389       .     S
H110  N108   1.02389       .     S
C111  C113   1.40236       .     S
C113  C111   1.40236       .     S
C111  C114   1.40236   1_454     S
C114  C111   1.40237   1_656     S
C112  C115   1.40237   1_454     S
C115  C112   1.40237   1_656     S
C112  C116   1.40236       .     S
C116  C112   1.40236       .     S
C112  C129   1.53499       .     S
C129  C112   1.53499       .     S
C113  C116   1.38955       .     S
C116  C113   1.38955       .     S
C113  H117   1.10877       .     S
H117  C113   1.10877       .     S
C114  C115   1.38955       .     S
C115  C114   1.38955       .     S
C114  H118   1.10877       .     S
H118  C114   1.10877       .     S
C115  H119   1.10877       .     S
H119  C115   1.10877       .     S
C116  H120   1.10877       .     S
H120  C116   1.10877       .     S
H121  N124   1.09896       .     S
N124  H121   1.09896       .     S
H121  O138   1.09896       .     S
O138  H121   1.09896       .     S
H122  N125   1.09896       .     S
N125  H122   1.09896       .     S
H122  O141   1.09896       .     S
O141  H122   1.09896       .     S
C123  N124   1.40222   1_454     S
N124  C123   1.40222   1_656     S
C123  N125   1.40222       .     S
N125  C123   1.40222       .     S
C123  C128   1.53499       .     S
C128  C123   1.53499       .     S
N124  H126   1.02389       .     S
H126  N124   1.02389       .     S
N125  H127   1.02389       .     S
H127  N125   1.02389       .     S
C128  C130   1.40222   1_454     S
C130  C128   1.40222   1_656     S
C128  C131   1.40222       .     S
C131  C128   1.40222       .     S
C129  C132   1.40222       .     S
C132  C129   1.40222       .     S
C129  C133   1.40222   1_454     S
C133  C129   1.40222   1_656     S
C130  C133   1.38985       .     S
C133  C130   1.38985       .     S
C130  H134   1.10862       .     S
H134  C130   1.10862       .     S
C131  C132   1.38985       .     S
C132  C131   1.38985       .     S
C131  H135   1.10862       .     S
H135  C131   1.10862       .     S
C132  H136   1.10862       .     S
H136  C132   1.10862       .     S
C133  H137   1.10862       .     S
H137  C133   1.10862       .     S
O138  H139   0.96902       .     S
H139  O138   0.96902       .     S
O138  C140   1.40222   1_656     S
C140  O138   1.40222   1_454     S
C140  O141   1.40222       .     S
O141  C140   1.40222       .     S
O141  H142   0.96903       .     S
H142  O141   0.96903       .     S
O143  H144   0.96902       .     S
H144  O143   0.96902       .     S
O143  H145   1.09866       .     S
H145  O143   1.09866       .     S
O146  H147   0.96880       .     S
H147  O146   0.96880       .     S
O146  H148   1.10071       .     S
H148  O146   1.10071       .     S
H148  N150   1.10101       .     S
N150  H148   1.10101       .     S
C149  N150   1.40189   1_554     S
N150  C149   1.40189   1_556     S
C149  N151   1.40189   1_545     S
N151  C149   1.40189   1_565     S
C149  C154   1.53786       .     S
C154  C149   1.53786       .     S
N150  H152   1.02366       .     S
H152  N150   1.02366       .     S
N151  H153   1.02366       .     S
H153  N151   1.02366       .     S
N151  H181   1.10101       .     S
H181  N151   1.10101       .     S
C154  C156   1.40204   1_554     S
C156  C154   1.40204   1_556     S
C154  C157   1.40204   1_545     S
C157  C154   1.40204   1_565     S
C155  C158   1.40204   1_545     S
C158  C155   1.40204   1_565     S
C155  C159   1.40204   1_554     S
C159  C155   1.40204   1_556     S
C155  C170   1.53786       .     S
C170  C155   1.53786       .     S
C156  C159   1.39214       .     S
C159  C156   1.39214       .     S
C156  H160   1.10851       .     S
H160  C156   1.10851       .     S
C157  C158   1.39214       .     S
C158  C157   1.39214       .     S
C157  H161   1.10851       .     S
H161  C157   1.10851       .     S
C158  H162   1.10851       .     S
H162  C158   1.10851       .     S
C159  H163   1.10851       .     S
H163  C159   1.10851       .     S
C164  N165   1.40189   1_545     S
N165  C164   1.40189   1_565     S
C164  N166   1.40189   1_554     S
N166  C164   1.40189   1_556     S
C164  C169   1.53786       .     S
C169  C164   1.53786       .     S
N165  H167   1.02366       .     S
H167  N165   1.02366       .     S
N165  H184   1.10101       .     S
H184  N165   1.10101       .     S
N166  H168   1.02366       .     S
H168  N166   1.02366       .     S
N166  H188   1.10101       .     S
H188  N166   1.10101       .     S
C169  C171   1.40189   1_545     S
C171  C169   1.40189   1_565     S
C169  C172   1.40189   1_554     S
C172  C169   1.40189   1_556     S
C170  C173   1.40189   1_554     S
C173  C170   1.40189   1_556     S
C170  C174   1.40189   1_545     S
C174  C170   1.40189   1_565     S
C171  C174   1.39244       .     S
C174  C171   1.39244       .     S
C171  H175   1.10836       .     S
H175  C171   1.10836       .     S
C172  C173   1.39244       .     S
C173  C172   1.39244       .     S
C172  H176   1.10836       .     S
H176  C172   1.10836       .     S
C173  H177   1.10836       .     S
H177  C173   1.10836       .     S
C174  H178   1.10836       .     S
H178  C174   1.10836       .     S
O179  H180   0.96880       .     S
H180  O179   0.96880       .     S
O179  H181   1.10071       .     S
H181  O179   1.10071       .     S
O182  H183   0.96880       .     S
H183  O182   0.96880       .     S
O182  H184   1.10101       .     S
H184  O182   1.10101       .     S
O182  C185   1.40189   1_565     S
C185  O182   1.40189   1_545     S
C185  O186   1.40189   1_554     S
O186  C185   1.40189   1_556     S
O186  H187   0.96880       .     S
H187  O186   0.96880       .     S
O186  H188   1.10101       .     S
H188  O186   1.10101       .     S
N81   H63    1.12317       .     S
H63   N81    1.12317       .     S
N66   H96    1.12316       .     S
H96   N66    1.12316       .     S
N65   H99    1.12316       .     S
H99   N65    1.12316       .     S
N80   H102   1.12317       .     S
H102  N80    1.12317       .     S
N108  H105   1.09896       .     S
H105  N108   1.09896       .     S
N124  H121   1.09896       .     S
H121  N124   1.09896       .     S
N125  H122   1.09896       .     S
H122  N125   1.09896       .     S
N107  H145   1.09896       .     S
H145  N107   1.09896       .     S
N150  H148   1.10101       .     S
H148  N150   1.10101       .     S
N151  H181   1.10101       .     S
H181  N151   1.10101       .     S
N165  H184   1.10101       .     S
H184  N165   1.10101       .     S
N166  H188   1.10101       .     S
H188  N166   1.10101       .     S
C48   H0     1.10101   1_554     S
H0    C48    1.10101   1_556     S
C58   H0     0.43685   1_554     S
H0    C58    0.43685   1_556     S
N2    Ru1    2.04135   1_565     S
Ru1   N2     2.04135   1_545     S
N11   Ru1    2.04516   1_655     S
Ru1   N11    2.04516   1_455     S
N20   Ru1    2.08631       .     S
Ru1   N20    2.08631       .     S
N29   Ru1    2.04135       .     S
Ru1   N29    2.04135       .     S
N38   Ru1    2.08631   1_556     S
Ru1   N38    2.08631   1_554     S
N47   Ru1    2.04516       .     S
Ru1   N47    2.04516       .     S
C4    N2     1.41270   1_556     S
N2    C4     1.41270   1_554     S
C5    N2     1.41270       .     S
N2    C5     1.41270       .     S
C6    C3     1.41270       .     S
C3    C6     1.41270       .     S
C7    C3     1.41270   1_556     S
C3    C7     1.41270   1_554     S
C140  C3     1.53530       .     S
C3    C140   1.53530       .     S
C7    C4     1.38985       .     S
C4    C7     1.38985       .     S
H8    C4     1.11707       .     S
C4    H8     1.11707       .     S
C6    C5     1.38985       .     S
C5    C6     1.38985       .     S
H9    C6     1.11707       .     S
C6    H9     1.11707       .     S
H10   C7     1.11707       .     S
C7    H10    1.11707       .     S
C13   N11    1.39033   1_565     S
N11   C13    1.39033   1_545     S
C14   N11    1.39033       .     S
N11   C14    1.39033       .     S
C15   C12    1.39033       .     S
C12   C15    1.39033       .     S
C16   C12    1.39033   1_565     S
C12   C16    1.39033   1_545     S
C185  C12    1.53816       .     S
C12   C185   1.53816       .     S
C16   C13    1.39244       .     S
C13   C16    1.39244       .     S
H17   C13    1.09938       .     S
C13   H17    1.09938       .     S
C15   C14    1.39244       .     S
C14   C15    1.39244       .     S
H18   C15    1.09938       .     S
C15   H18    1.09938       .     S
H19   C16    1.09938       .     S
C16   H19    1.09938       .     S
C22   N20    1.39739   1_565     S
N20   C22    1.39739   1_545     S
C23   N20    1.39739       .     S
N20   C23    1.39739       .     S
C24   C21    1.39739       .     S
C21   C24    1.39739       .     S
C25   C21    1.39739   1_565     S
C21   C25    1.39739   1_545     S
C56   C21    1.56880       .     S
C21   C56    1.56880       .     S
H190  C21    1.12316   1_655     S
C21   H190   1.12316   1_455     S
C25   C22    1.42046       .     S
C22   C25    1.42046       .     S
C24   C23    1.42046       .     S
C23   C24    1.42046       .     S
H26   C23    1.10497       .     S
C23   H26    1.10497       .     S
H27   C24    1.10497       .     S
C24   H27    1.10497       .     S
H28   C25    1.10497       .     S
C25   H28    1.10497       .     S
C31   N29    1.39163   1_655     S
N29   C31    1.39163   1_455     S
C32   N29    1.39162       .     S
N29   C32    1.39162       .     S
C33   C30    1.39163       .     S
C30   C33    1.39163       .     S
C34   C30    1.39163   1_655     S
C30   C34    1.39163   1_455     S
C57   C30    1.53500       .     S
C30   C57    1.53500       .     S
H189  C30    1.09896   1_556     S
C30   H189   1.09896   1_554     S
C34   C31    1.38985       .     S
C31   C34    1.38985       .     S
C33   C32    1.38985       .     S
C32   C33    1.38985       .     S
H35   C32    1.10041       .     S
C32   H35    1.10041       .     S
H36   C33    1.10041       .     S
C33   H36    1.10041       .     S
H37   C34    1.10041       .     S
C34   H37    1.10041       .     S
C40   N38    1.39933   1_655     S
N38   C40    1.39933   1_455     S
C41   N38    1.39933       .     S
N38   C41    1.39933       .     S
C42   C39    1.39933       .     S
C39   C42    1.39933       .     S
C43   C39    1.39933   1_655     S
C39   C43    1.39933   1_455     S
C59   C39    1.56911       .     S
C39   C59    1.56911       .     S
H60   C39    1.12316   1_565     S
C39   H60    1.12316   1_545     S
C43   C40    1.42046       .     S
C40   C43    1.42046       .     S
H44   C40    1.10650       .     S
C40   H44    1.10650       .     S
C42   C41    1.42046       .     S
C41   C42    1.42046       .     S
H45   C42    1.10650       .     S
C42   H45    1.10650       .     S
H46   C43    1.10650       .     S
C43   H46    1.10650       .     S
C49   N47    1.41334       .     S
N47   C49    1.41334       .     S
C50   N47    1.41334   1_556     S
N47   C50    1.41334   1_554     S
C51   C48    1.41334   1_556     S
C48   C51    1.41334   1_554     S
C52   C48    1.41334       .     S
C48   C52    1.41334       .     S
C58   C48    1.53786       .     S
C48   C58    1.53786       .     S
C52   C49    1.39244       .     S
C49   C52    1.39244       .     S
H53   C49    1.11758       .     S
C49   H53    1.11758       .     S
C51   C50    1.39244       .     S
C50   C51    1.39244       .     S
H54   C51    1.11758       .     S
C51   H54    1.11758       .     S
H55   C52    1.11758       .     S
C52   H55    1.11758       .     S
O94   C56    1.39853   1_655     S
C56   O94    1.39853   1_455     S
O97   C56    1.39853   1_565     S
C56   O97    1.39853   1_545     S
H190  C56    0.44564   1_655     S
C56   H190   0.44564   1_455     S
O103  C57    1.40237   1_656     S
C57   O103   1.40236   1_454     S
O143  C57    1.40236       .     S
C57   O143   1.40236       .     S
H189  C57    0.43604   1_556     S
C57   H189   0.43604   1_554     S
O146  C58    1.40204   1_556     S
C58   O146   1.40204   1_554     S
O179  C58    1.40204   1_565     S
C58   O179   1.40204   1_545     S
H60   C59    0.44595   1_565     S
C59   H60    0.44595   1_545     S
O61   C59    1.39837   1_565     S
C59   O61    1.39837   1_545     S
O100  C59    1.39837   1_655     S
C59   O100   1.39837   1_455     S
H62   O61    0.96637       .     S
O61   H62    0.96637       .     S
H63   O61    1.12316       .     S
O61   H63    1.12316       .     S
N81   H63    1.12317       .     S
H63   N81    1.12317       .     S
N65   C64    1.39838   1_565     S
C64   N65    1.39838   1_545     S
N66   C64    1.39838   1_655     S
C64   N66    1.39838   1_455     S
C69   C64    1.56880       .     S
C64   C69    1.56880       .     S
H67   N65    1.10558       .     S
N65   H67    1.10558       .     S
H99   N65    1.12316       .     S
N65   H99    1.12316       .     S
H68   N66    1.10558       .     S
N66   H68    1.10558       .     S
H96   N66    1.12316       .     S
N66   H96    1.12316       .     S
C71   C69    1.39853   1_565     S
C69   C71    1.39853   1_545     S
C72   C69    1.39853   1_655     S
C69   C72    1.39853   1_455     S
C73   C70    1.39853   1_655     S
C70   C73    1.39853   1_455     S
C74   C70    1.39853   1_565     S
C70   C74    1.39853   1_545     S
C85   C70    1.56880       .     S
C70   C85    1.56880       .     S
C74   C71    1.42016       .     S
C71   C74    1.42016       .     S
H75   C71    1.10574       .     S
C71   H75    1.10574       .     S
C73   C72    1.42016       .     S
C72   C73    1.42016       .     S
H76   C72    1.10574       .     S
C72   H76    1.10574       .     S
H77   C73    1.10574       .     S
C73   H77    1.10574       .     S
H78   C74    1.10574       .     S
C74   H78    1.10574       .     S
N80   C79    1.39837   1_655     S
C79   N80    1.39837   1_455     S
N81   C79    1.39837   1_565     S
C79   N81    1.39837   1_545     S
C84   C79    1.56880       .     S
C79   C84    1.56880       .     S
H82   N80    1.02108       .     S
N80   H82    1.02108       .     S
H102  N80    1.12317       .     S
N80   H102   1.12317       .     S
H83   N81    1.02108       .     S
N81   H83    1.02108       .     S
C86   C84    1.39837   1_655     S
C84   C86    1.39837   1_455     S
C87   C84    1.39837   1_565     S
C84   C87    1.39837   1_545     S
C88   C85    1.39837   1_565     S
C85   C88    1.39837   1_545     S
C89   C85    1.39837   1_655     S
C85   C89    1.39837   1_455     S
C89   C86    1.42046       .     S
C86   C89    1.42046       .     S
H90   C86    1.10558       .     S
C86   H90    1.10558       .     S
C88   C87    1.42046       .     S
C87   C88    1.42046       .     S
H91   C87    1.10558       .     S
C87   H91    1.10558       .     S
H92   C88    1.10558       .     S
C88   H92    1.10558       .     S
H93   C89    1.10558       .     S
C89   H93    1.10558       .     S
H95   O94    1.10574       .     S
O94   H95    1.10574       .     S
H96   O94    1.12286       .     S
O94   H96    1.12286       .     S
H98   O97    1.10574       .     S
O97   H98    1.10574       .     S
H99   O97    1.12286       .     S
O97   H99    1.12286       .     S
H101  O100   0.96637       .     S
O100  H101   0.96637       .     S
H102  O100   1.12316       .     S
O100  H102   1.12316       .     S
H104  O103   0.96902       .     S
O103  H104   0.96902       .     S
H105  O103   1.09866       .     S
O103  H105   1.09866       .     S
N108  H105   1.09896       .     S
H105  N108   1.09896       .     S
N107  C106   1.40222       .     S
C106  N107   1.40222       .     S
N108  C106   1.40222   1_656     S
C106  N108   1.40222   1_454     S
C111  C106   1.53500       .     S
C106  C111   1.53500       .     S
H109  N107   1.02389       .     S
N107  H109   1.02389       .     S
H145  N107   1.09896       .     S
N107  H145   1.09896       .     S
H110  N108   1.02389       .     S
N108  H110   1.02389       .     S
C113  C111   1.40236       .     S
C111  C113   1.40236       .     S
C114  C111   1.40237   1_656     S
C111  C114   1.40236   1_454     S
C115  C112   1.40237   1_656     S
C112  C115   1.40237   1_454     S
C116  C112   1.40236       .     S
C112  C116   1.40236       .     S
C129  C112   1.53499       .     S
C112  C129   1.53499       .     S
C116  C113   1.38955       .     S
C113  C116   1.38955       .     S
H117  C113   1.10877       .     S
C113  H117   1.10877       .     S
C115  C114   1.38955       .     S
C114  C115   1.38955       .     S
H118  C114   1.10877       .     S
C114  H118   1.10877       .     S
H119  C115   1.10877       .     S
C115  H119   1.10877       .     S
H120  C116   1.10877       .     S
C116  H120   1.10877       .     S
N124  H121   1.09896       .     S
H121  N124   1.09896       .     S
O138  H121   1.09896       .     S
H121  O138   1.09896       .     S
N125  H122   1.09896       .     S
H122  N125   1.09896       .     S
O141  H122   1.09896       .     S
H122  O141   1.09896       .     S
N124  C123   1.40222   1_656     S
C123  N124   1.40222   1_454     S
N125  C123   1.40222       .     S
C123  N125   1.40222       .     S
C128  C123   1.53499       .     S
C123  C128   1.53499       .     S
H126  N124   1.02389       .     S
N124  H126   1.02389       .     S
H127  N125   1.02389       .     S
N125  H127   1.02389       .     S
C130  C128   1.40222   1_656     S
C128  C130   1.40222   1_454     S
C131  C128   1.40222       .     S
C128  C131   1.40222       .     S
C132  C129   1.40222       .     S
C129  C132   1.40222       .     S
C133  C129   1.40222   1_656     S
C129  C133   1.40222   1_454     S
C133  C130   1.38985       .     S
C130  C133   1.38985       .     S
H134  C130   1.10862       .     S
C130  H134   1.10862       .     S
C132  C131   1.38985       .     S
C131  C132   1.38985       .     S
H135  C131   1.10862       .     S
C131  H135   1.10862       .     S
H136  C132   1.10862       .     S
C132  H136   1.10862       .     S
H137  C133   1.10862       .     S
C133  H137   1.10862       .     S
H139  O138   0.96902       .     S
O138  H139   0.96902       .     S
C140  O138   1.40222   1_454     S
O138  C140   1.40222   1_656     S
O141  C140   1.40222       .     S
C140  O141   1.40222       .     S
H142  O141   0.96903       .     S
O141  H142   0.96903       .     S
H144  O143   0.96902       .     S
O143  H144   0.96902       .     S
H145  O143   1.09866       .     S
O143  H145   1.09866       .     S
H147  O146   0.96880       .     S
O146  H147   0.96880       .     S
H148  O146   1.10071       .     S
O146  H148   1.10071       .     S
N150  H148   1.10101       .     S
H148  N150   1.10101       .     S
N150  C149   1.40189   1_556     S
C149  N150   1.40189   1_554     S
N151  C149   1.40189   1_565     S
C149  N151   1.40189   1_545     S
C154  C149   1.53786       .     S
C149  C154   1.53786       .     S
H152  N150   1.02366       .     S
N150  H152   1.02366       .     S
H153  N151   1.02366       .     S
N151  H153   1.02366       .     S
H181  N151   1.10101       .     S
N151  H181   1.10101       .     S
C156  C154   1.40204   1_556     S
C154  C156   1.40204   1_554     S
C157  C154   1.40204   1_565     S
C154  C157   1.40204   1_545     S
C158  C155   1.40204   1_565     S
C155  C158   1.40204   1_545     S
C159  C155   1.40204   1_556     S
C155  C159   1.40204   1_554     S
C170  C155   1.53786       .     S
C155  C170   1.53786       .     S
C159  C156   1.39214       .     S
C156  C159   1.39214       .     S
H160  C156   1.10851       .     S
C156  H160   1.10851       .     S
C158  C157   1.39214       .     S
C157  C158   1.39214       .     S
H161  C157   1.10851       .     S
C157  H161   1.10851       .     S
H162  C158   1.10851       .     S
C158  H162   1.10851       .     S
H163  C159   1.10851       .     S
C159  H163   1.10851       .     S
N165  C164   1.40189   1_565     S
C164  N165   1.40189   1_545     S
N166  C164   1.40189   1_556     S
C164  N166   1.40189   1_554     S
C169  C164   1.53786       .     S
C164  C169   1.53786       .     S
H167  N165   1.02366       .     S
N165  H167   1.02366       .     S
H184  N165   1.10101       .     S
N165  H184   1.10101       .     S
H168  N166   1.02366       .     S
N166  H168   1.02366       .     S
H188  N166   1.10101       .     S
N166  H188   1.10101       .     S
C171  C169   1.40189   1_565     S
C169  C171   1.40189   1_545     S
C172  C169   1.40189   1_556     S
C169  C172   1.40189   1_554     S
C173  C170   1.40189   1_556     S
C170  C173   1.40189   1_554     S
C174  C170   1.40189   1_565     S
C170  C174   1.40189   1_545     S
C174  C171   1.39244       .     S
C171  C174   1.39244       .     S
H175  C171   1.10836       .     S
C171  H175   1.10836       .     S
C173  C172   1.39244       .     S
C172  C173   1.39244       .     S
H176  C172   1.10836       .     S
C172  H176   1.10836       .     S
H177  C173   1.10836       .     S
C173  H177   1.10836       .     S
H178  C174   1.10836       .     S
C174  H178   1.10836       .     S
H180  O179   0.96880       .     S
O179  H180   0.96880       .     S
H181  O179   1.10071       .     S
O179  H181   1.10071       .     S
H183  O182   0.96880       .     S
O182  H183   0.96880       .     S
H184  O182   1.10101       .     S
O182  H184   1.10101       .     S
C185  O182   1.40189   1_545     S
O182  C185   1.40189   1_565     S
O186  C185   1.40189   1_556     S
C185  O186   1.40189   1_554     S
H187  O186   0.96880       .     S
O186  H187   0.96880       .     S
H188  O186   1.10101       .     S
O186  H188   1.10101       .     S
