data_I
_chemical_name_common  '/data/user2/wty/HOF/MOFDiff/mofdiff/data/test/258-hof-lifm-7'
_cell_length_a 16.67160
_cell_length_b 16.68460
_cell_length_c 26.80900
_cell_angle_alpha 89.82000
_cell_angle_beta  89.98900
_cell_angle_gamma 80.76600
_space_group_name_H-M_alt      'P 1'


loop_
_space_group_symop_operation_xyz
  'x, y, z' 

loop_
_atom_site_label
_atom_site_fract_x
_atom_site_fract_y
_atom_site_fract_z
_atom_site_type_symbol
O0      0.6645   0.0234   0.2713     O
O1       0.649    0.887   0.0043     O
O2       0.774   0.8988   0.9788     O
H3     0.78111  0.90718  0.00923     H
O4      0.6456   0.9046   0.2407     O
N5      0.3342   0.6159   0.9171     N
N6      0.3472   0.5987   0.3262     N
C7       0.675   0.8778    0.918     C
C8      0.6169   0.8751   0.4276     C
C9      0.6035   0.8479   0.4794     C
C10     0.5303   0.8677   0.7485     C
H11    0.49311  0.90308  0.76844     H
C12     0.4462   0.6139   0.5596     C
H13     0.4678  0.57179  0.58207     H
C14      0.619   0.7666   0.4926     C
H15    0.64375  0.72826  0.46883     H
C16     0.4356   0.6284   0.8564     C
H17    0.49008  0.63445  0.84922     H
C18     0.5325   0.7655   0.6218     C
C19     0.4765   0.7174   0.6219     C
C20     0.3993   0.7546    0.542     C
H21    0.38956  0.80965  0.55253     H
C22     0.5083   0.8458   0.7012     C
H23    0.45489  0.86529  0.68958     H
C24     0.5616   0.7963   0.6703     C
C25     0.3902   0.6541   0.4786     C
C26      0.733   0.8704   0.8807     C
H27    0.78805   0.8728  0.88878     H
C28      0.379   0.6266    0.818     C
C29     0.5995    0.739   0.5397     C
H30    0.60979  0.68265  0.54744     H
C31     0.5958    0.874   0.9058     C
H32    0.55563  0.87933  0.93119     H
C33     0.4102   0.6213   0.9044     C
H34    0.44931  0.62007  0.93034     H
C35     0.4492   0.6832     0.67     C
C36     0.3749   0.7345   0.4951     C
H37    0.34753  0.77565  0.47385     H
C38     0.5733   0.8626   0.8564     C
H39    0.51821   0.8602  0.84848     H
C40     0.5648   0.7947   0.5752     C
C41     0.6317   0.8546   0.8187     C
C42     0.3796   0.6898   0.3881     C
H43    0.39378  0.74125  0.39579     H
C44     0.5728   0.9034   0.5162     C
H45    0.56479  0.95979  0.50859     H
C46     0.6494   0.9487   0.2757     C
C47     0.5049   0.6363   0.7013     C
H48    0.55911  0.61915  0.69038     H
C49     0.4017   0.6401   0.7651     C
C50     0.6985   0.8882   0.9715     C
C51     0.6138   0.8208   0.3877     C
H52    0.60362  0.76729  0.39407     H
C53     0.2807   0.6114   0.8808     C
H54     0.2268  0.60482  0.88929     H
C55      0.481   0.6149   0.7483     C
H56    0.51914  0.58262  0.76946     H
C57     0.3723   0.6351   0.4262     C
C58     0.3454   0.6815   0.7323     C
H59    0.29065  0.69657  0.74277     H
C60     0.3013   0.6159    0.831     C
H61    0.26209  0.61156  0.80587     H
C62     0.4226   0.5938    0.512     C
H63    0.42865  0.53846   0.5024     H
C64     0.3665   0.6702   0.3393     C
H65    0.37142  0.70909  0.31395     H
C66     0.6393   0.9231   0.3286     C
C67      0.338   0.5459   0.3621     C
H68    0.32261  0.49549    0.353     H
C69      0.439   0.6933   0.5746     C
C70     0.6085    0.837   0.7666     C
C71     0.6311    0.953   0.4163     C
H72    0.63473   0.9902  0.44269     H
C73     0.5536   0.8787   0.5635     C
H74    0.53305  0.91772  0.58796     H
C75     0.3499   0.5609   0.4128     C
H76    0.34281  0.52155  0.43745     H
C77     0.6385    0.768   0.6876     C
H78    0.67561  0.73377  0.66697     H
C79     0.3672   0.7012   0.6851     C
H80    0.32709  0.72691  0.66252     H
C81     0.6257   0.8454    0.339     C
H82    0.62437  0.80806  0.31242     H
C83     0.7113   0.8595   0.8311     C
H84    0.75146  0.85539  0.80566     H
C85     0.6634    0.789   0.7356     C
H86    0.71731  0.77031  0.74662     H
C87       0.64   0.9778   0.3676     C
H88    0.64652  0.03223  0.36073     H
H89      0.673    0.027   0.2405     H
O90      0.746   0.0744   0.4876     O
H91    0.73378  0.07417  0.51797     H
O92     0.8283   0.9794   0.7701     O
H93    0.83526  0.96138  0.74096     H
O94     0.9241     0.05    0.748     O
O95     0.8343   0.1502   0.5151     O
N96      0.158   0.3713   0.4275     N
C97     0.1135   0.2505    0.256     C
H98     0.1352  0.20644   0.2771     H
N99     0.1189   0.4231   0.8319     N
C100    0.1051    0.331   0.2738     C
C101    0.9304   0.2027   0.1758     C
C102    0.9668   0.2253    0.128     C
C103    0.0904    0.236   0.2083     C
H104   0.09696  0.18165  0.19665     H
C105    0.9372   0.1234   0.1938     C
H106    0.9567  0.07959  0.17216     H
C107    0.1243   0.3446   0.3271     C
C108    0.0194   0.2793   0.1283     C
C109    0.9158   0.1253   0.9854     C
C110    0.8851   0.1714   0.2745     C
C111    0.8284   0.1289   0.4277     C
C112    0.0424   0.3171   0.0811     C
C113    0.8957   0.2665   0.2078     C
H114   0.88662  0.32076   0.1957     H
C115    0.8849   0.0563   0.8332     C
C116    0.8247   0.0929   0.3412     C
H117   0.80877  0.05851  0.31616     H
C118    0.8706   0.1901   0.4152     C
H119   0.88704  0.22347  0.44066     H
C120    0.0572   0.2994   0.1763     C
C121    0.8659   0.1549   0.3282     C
C122    0.1201   0.3085   0.4138     C
H123   0.10506  0.27326  0.43874     H
C124    0.8812   0.0286   0.7795     C
C125    0.9467   0.1849   0.0806     C
C126    0.8747   0.2504   0.2571     C
H127   0.85323  0.29387  0.27853     H
C128    0.8061   0.0801   0.3912     C
H129   0.77769  0.03702  0.39976     H
C130    0.9956    0.117   0.0038     C
H131    0.0396  0.09121  0.98413     H
C132    0.9819   0.3531   0.0494     C
H133   0.92679  0.35945  0.05989     H
C134    0.1806   0.4177    0.392     C
H135   0.20943  0.46012  0.40117     H
C136     0.103   0.2947   0.3643     C
H137   0.07626  0.25044  0.35591     H
C138    0.8525   0.1572    0.017     C
H139   0.79794  0.15902  0.00619     H
C140    0.8674   0.1865   0.0642     C
H141   0.82319  0.20769  0.08524     H
C142    0.0103   0.1464   0.0508     C
H143   0.06453   0.1402  0.06299     H
C144    0.0529    0.378   0.1931     C
H145    0.0338  0.42212  0.17142     H
C146    0.9161   0.1067   0.2424     C
H147   0.92245  0.05216  0.25395     H
C148    0.0798   0.3721   0.9866     C
C149    0.9496   0.0926   0.8476     C
H150   0.98858  0.10259  0.82344     H
C151    0.8365   0.0666   0.9183     C
H152   0.79662  0.05825  0.94227     H
C153    0.9024   0.1013   0.9331     C
C154    0.1646   0.4077   0.3417     C
H155   0.18086  0.44361  0.31748     H
C156    0.1414   0.3422   0.0189     C
H157   0.19648  0.33973  0.00908     H
C158    0.0763   0.3937   0.2421     C
H159   0.07219  0.44816  0.25327     H
C160    0.9586   0.1146   0.8965     C
H161   0.00393  0.13936  0.90551     H
C162    0.8896   0.2042   0.3657     C
H163   0.91859  0.24704  0.35755     H
C164    0.0959   0.3904   0.9328     C
C165    0.0003     0.38   0.0028     C
H166    0.9577  0.40435  0.98146     H
C167     0.042   0.3739   0.8962     C
H168   0.99534  0.35135  0.90551     H
C169    0.1223   0.3153   0.0665     C
H170   0.16492  0.29568  0.08906     H
C171    0.8039   0.1189   0.4808     C
C172    0.0549   0.3897   0.8467     C
H173   0.01756  0.37656  0.82241     H
C174    0.1618   0.4239   0.9177     C
H175   0.20078  0.43586  0.94123     H
C176    0.1704   0.4402   0.8663     C
H177   0.21541  0.46466    0.856     H
C178    0.8274   0.0433   0.8686     C
H179   0.78202  0.01878  0.85925     H
O180    0.1931   0.3769   0.5221     O
H181   0.18252  0.38024  0.49146     H
O182    0.2957   0.4527    0.254     O
O183    0.3458   0.5664   0.2318     O
H184   0.34786  0.57315  0.26281     H
O185    0.2921   0.4462   0.4998     O
N186     0.703   0.0873    0.584     N
C187    0.4731   0.2862   0.8769     C
N188      0.66   0.0605   0.1752     N
C189     0.569   0.1874   0.9253     C
C190    0.4357   0.3215   0.9246     C
C191    0.6173   0.1309   0.0215     C
C192    0.2855   0.4061   0.5852     C
C193    0.3657   0.4132   0.0712     C
C194    0.6029   0.2365   0.9589     C
H195   0.60927  0.28999  0.94935     H
C196    0.3848   0.3831   0.0191     C
C197     0.635   0.1052    0.074     C
C198    0.4305   0.4038   0.9355     C
H199   0.44458  0.43973  0.91064     H
C200    0.2463   0.3661   0.6201     C
H201   0.19954   0.3438  0.61072     H
C202    0.3389   0.4657   0.1697     C
C203    0.5329   0.2212   0.8773     C
C204     0.341   0.3908   0.6839     C
C205    0.3843   0.3024    0.007     C
H206   0.36663  0.26723  0.03115     H
C207    0.4088   0.2719   0.9603     C
H208   0.40724  0.21652  0.95288     H
C209    0.2578   0.4138   0.5317     C
C210    0.6233    0.028   0.0913     C
H211   0.60627  0.98959  0.06918     H
C212    0.5892   0.0801   0.9866     C
H213   0.58561  0.02562  0.99542     H
C214    0.2739    0.358   0.6686     C
H215    0.2464  0.32935  0.69206     H
C216    0.5661   0.1084   0.9388     C
H217   0.54829  0.07251  0.91531     H
C218    0.3234   0.4941   0.2223     C
C219    0.3865   0.4856   0.0874     C
H220   0.41065  0.51809  0.06445     H
C221    0.4051   0.4344   0.9822     C
H222   0.40169   0.4908  0.98865     H
C223    0.3307   0.3669    0.106     C
H224   0.31532  0.31707  0.09579     H
C225    0.3178   0.3916    0.155     C
H226   0.29496   0.3586  0.17826     H
C227    0.6554   0.1102   0.6851     C
C228    0.6271   0.2085   0.0053     C
H229   0.65108  0.24254  0.02721     H
C230    0.7292    0.131   0.6672     C
H231    0.7644  0.15332  0.68927     H
C232    0.6373   0.0093   0.1415     C
H233   0.63019  0.95681  0.15265     H
C234    0.3734   0.5124   0.1362     C
H235   0.38824   0.5626  0.14624     H
C236    0.6598   0.1575   0.1095     C
H237   0.66951  0.20993  0.09973     H
C238      0.75    0.119   0.6178     C
H239   0.79988  0.13352  0.60667     H
C240    0.6348   0.0671   0.6013     C
H241   0.60103  0.04471  0.57847     H
C242    0.6703   0.1328   0.1587     C
H243   0.68572  0.17024  0.18212     H
C244    0.3526   0.4398   0.5997     C
H245   0.37966  0.46844  0.57603     H
C246    0.3807    0.432   0.6486     C
H247   0.42707  0.45491  0.65798     H
C248    0.4571   0.3732  0.74538     C
H249   0.49177  0.38611  0.71945     H
C250     0.374     0.38   0.7371     C
C251    0.3232   0.3612  0.77505     C
H252    0.2664  0.36587  0.76939     H
C253    0.3556   0.3356  0.82126     C
H254    0.3209  0.32275   0.8472     H
C255    0.4387   0.3288  0.82954     C
C256    0.4895   0.3476   0.7916     C
H257   0.54627  0.34299  0.79725     H
C258     0.609   0.0762     0.65     C
H259   0.55949  0.05923  0.65973     H
C260    0.6785   0.1478  0.77304     C
H261   0.73473  0.14471  0.76581     H
C262    0.6263   0.1249  0.73727     C
C263    0.5441   0.1293  0.74784     C
H264   0.50843  0.11369   0.7234     H
C265    0.5141   0.1567  0.79418     C
H266   0.45789  0.15977   0.8014     H
C267    0.5663   0.1796  0.82994     C
C268    0.6485   0.1751  0.81937     C
H269   0.68419  0.19079  0.84382     H
O270    0.2037   0.5403   0.0022     O
O271    0.1076   0.4577    0.736     O
H272   0.11218  0.45104  0.76704     H
O273    0.2813   0.6362   0.0102     O
O274    0.1932   0.5466    0.749     O
N275    0.8011   0.8954   0.0757     N
N276    0.8353   0.9431   0.6715     N
C277     0.202    0.612   0.0783     C
C278    0.1706   0.5551   0.1072     C
H279    0.1623  0.50505  0.09298     H
C280    0.0713   0.7031   0.3265     C
C281    0.9844   0.8496   0.4521     C
H282   0.03927  0.84583   0.4415     H
C283    0.0208   0.6149   0.4954     C
H284    0.9812  0.59419  0.51503     H
C285    0.8468   0.8341   0.4367     C
H286   0.80591  0.82028  0.41512     H
C287    0.1513   0.5714    0.157     C
H288   0.13061  0.53179   0.1766     H
C289    0.9987   0.6492   0.4501     C
H290   0.94453  0.65201  0.43853     H
C291    0.1373   0.6647   0.2312     C
C292    0.0998   0.6094   0.5136     C
C293     0.026   0.7241   0.3741     C
C294     0.927   0.8218   0.4205     C
C295    0.1393   0.5364   0.6667     C
C296    0.2275   0.5918   0.0265     C
C297     0.882    0.888   0.5163     C
C298    0.0569   0.6805   0.4206     C
C299    0.8845   0.8833   0.3132     C
H300    0.8863  0.92543  0.33677     H
C301    0.1364    0.669   0.4361     C
H302     0.177  0.68483  0.41511     H
C303    0.1341   0.6043   0.2667     C
H304   0.15452  0.54946  0.25857     H
C305    0.9565   0.7808   0.3736     C
C306    0.7957   0.8937   0.5937     C
H307   0.75645  0.86999  0.57569     H
C308    0.8542   0.9027   0.2649     C
H309   0.83827  0.95796   0.2557     H
C310    0.8282   0.9488   0.1053     C
H311   0.83903  0.99829  0.09123     H
C312    0.1619   0.6442   0.1784     C
C313    0.9115   0.8039   0.3267     C
C314     0.119   0.5788   0.5659     C
C315    0.8631   0.9109    0.569     C
C316    0.8412   0.9351   0.1558     C
H317   0.86052  0.97499  0.17578     H
C318    0.0818   0.7643   0.2924     C
H319   0.06679  0.81958  0.30165     H
C320    0.8261   0.8628   0.1775     C
C321    0.1509   0.5153   0.7213     C
C322    0.1137   0.7454   0.2452     C
H323   0.11953  0.78773  0.22236     H
C324    0.1578   0.6344   0.4824     C
H325   0.21288  0.62776  0.49297     H
C326    0.1018   0.6227   0.3138     C
H327    0.1004   0.5805   0.3375     H
C328     0.213   0.6843   0.0993     C
H329   0.23552  0.72298  0.07998     H
C330    0.7833   0.9097   0.6436     C
H331   0.73564  0.89639  0.65886     H
C332     0.193   0.5798   0.6434     C
H333   0.23676  0.59535  0.66174     H
C334    0.0656    0.533   0.5907     C
H335   0.02134  0.51753  0.57291     H
C336    0.9617   0.8825   0.4985     C
H337   0.00127  0.90177  0.51876     H
C338    0.8471   0.8424   0.2307     C
C339    0.8247   0.8656   0.4831     C
H340   0.76924  0.87238  0.49282     H
C341    0.8664   0.7627   0.2466     C
H342   0.85788  0.72046  0.22451     H
C343     0.183   0.6008    0.593     C
H344   0.22021  0.63031  0.57723     H
C345    0.8975   0.7423   0.2934     C
H346   0.90942  0.68691  0.30318     H
C347    0.1915   0.7013   0.1485     C
H348   0.19698  0.75266  0.16207     H
C349    0.0772   0.5109   0.6398     C
H350   0.04263  0.47822  0.65539     H
C351    0.7841   0.8267   0.0969     C
H352   0.76366  0.78862  0.07614     H
C353    0.7945   0.8089   0.1458     C
H354   0.78043  0.75991  0.15874     H
C355    0.9159     0.95   0.5971     C
H356   0.96198  0.96715  0.58207     H
C357    0.8991   0.9632   0.6481     C
H358   0.93627  0.98828  0.66715     H
H359     0.295    0.622   0.9798     H
loop_
_geom_bond_atom_site_label_1
_geom_bond_atom_site_label_2
_geom_bond_distance
_geom_bond_site_symmetry_2
_ccdc_geom_bond_type
H3    N275   1.81720       .     S
N275  H3     1.81720       .     S
H89   N188   1.83826       .     S
N188  H89    1.83826       .     S
H91   N186   1.84687       .     S
N186  H91    1.84687       .     S
H93   N276   1.88789       .     S
N276  H93    1.88789       .     S
H181  N96    1.77511       .     S
N96   H181   1.77511       .     S
H184  N6     1.75298       .     S
N6    H184   1.75298       .     S
H272  N99    1.79767       .     S
N99   H272   1.79767       .     S
H359  N5     1.80063       .     S
N5    H359   1.80063       .     S
O0    C46    1.31545   1_545     S
C46   O0     1.31545   1_565     S
O0    H89    0.84135       .     S
H89   O0     0.84135       .     S
O1    C50    1.20813   1_554     S
C50   O1     1.20813   1_556     S
O2    H3     0.83976   1_556     S
H3    O2     0.83976   1_554     S
O2    C50    1.31365       .     S
C50   O2     1.31365       .     S
O4    C46    1.20215       .     S
C46   O4     1.20215       .     S
N5    C33    1.32880       .     S
C33   N5     1.32880       .     S
N5    C53    1.33061       .     S
C53   N5     1.33061       .     S
N6    C64    1.33262       .     S
C64   N6     1.33262       .     S
N6    C67    1.32811       .     S
C67   N6     1.32811       .     S
C7    C26    1.38285       .     S
C26   C7     1.38285       .     S
C7    C31    1.37171       .     S
C31   C7     1.37171       .     S
C7    C50    1.50478       .     S
C50   C7     1.50478       .     S
C8    C9     1.48756       .     S
C9    C8     1.48756       .     S
C8    C51    1.41025       .     S
C51   C8     1.41025       .     S
C8    C71    1.39045       .     S
C71   C8     1.39045       .     S
C9    C14    1.38438       .     S
C14   C9     1.38438       .     S
C9    C44    1.39506       .     S
C44   C9     1.39506       .     S
C10   H11    0.95028       .     S
H11   C10    0.95028       .     S
C10   C22    1.38641       .     S
C22   C10    1.38641       .     S
C10   C70    1.40779       .     S
C70   C10    1.40779       .     S
C12   H13    0.94996       .     S
H13   C12    0.94996       .     S
C12   C62    1.39318       .     S
C62   C12    1.39318       .     S
C12   C69    1.37237       .     S
C69   C12    1.37237       .     S
C14   H15    0.95042       .     S
H15   C14    0.95042       .     S
C14   C29    1.39871       .     S
C29   C14    1.39871       .     S
C16   H17    0.94944       .     S
H17   C16    0.94944       .     S
C16   C28    1.40027       .     S
C28   C16    1.40027       .     S
C16   C33    1.36536       .     S
C33   C16    1.36536       .     S
C18   C19    1.32519       .     S
C19   C18    1.32519       .     S
C18   C24    1.50815       .     S
C24   C18    1.50815       .     S
C18   C40    1.47248       .     S
C40   C18    1.47248       .     S
C19   C35    1.50801       .     S
C35   C19    1.50801       .     S
C19   C69    1.49824       .     S
C69   C19    1.49824       .     S
C20   H21    0.95049       .     S
H21   C20    0.95049       .     S
C20   C36    1.38039       .     S
C36   C20    1.38039       .     S
C20   C69    1.42313       .     S
C69   C20    1.42313       .     S
C22   H23    0.94984       .     S
H23   C22    0.94984       .     S
C22   C24    1.38796       .     S
C24   C22    1.38796       .     S
C24   C77    1.37342       .     S
C77   C24    1.37342       .     S
C25   C36    1.39788       .     S
C36   C25    1.39788       .     S
C25   C57    1.48199       .     S
C57   C25    1.48199       .     S
C25   C62    1.38776       .     S
C62   C25    1.38776       .     S
C26   H27    0.95014       .     S
H27   C26    0.95014       .     S
C26   C83    1.39819       .     S
C83   C26    1.39819       .     S
C28   C49    1.49344       .     S
C49   C28    1.49344       .     S
C28   C60    1.38022       .     S
C60   C28    1.38022       .     S
C29   H30    0.95050       .     S
H30   C29    0.95050       .     S
C29   C40    1.39173       .     S
C40   C29    1.39173       .     S
C31   H32    0.94912       .     S
H32   C31    0.94912       .     S
C31   C38    1.39839       .     S
C38   C31    1.39839       .     S
C33   H34    0.95130       .     S
H34   C33    0.95130       .     S
C35   C47    1.39346       .     S
C47   C35    1.39346       .     S
C35   C79    1.41129       .     S
C79   C35    1.41129       .     S
C36   H37    0.94934       .     S
H37   C36    0.94934       .     S
C38   H39    0.94981       .     S
H39   C38    0.94981       .     S
C38   C41    1.39500       .     S
C41   C38    1.39500       .     S
C40   C73    1.41801       .     S
C73   C40    1.41801       .     S
C41   C70    1.49197       .     S
C70   C41    1.49197       .     S
C41   C83    1.38327       .     S
C83   C41    1.38327       .     S
C42   H43    0.94949       .     S
H43   C42    0.94949       .     S
C42   C57    1.38592       .     S
C57   C42    1.38592       .     S
C42   C64    1.37548       .     S
C64   C42    1.37548       .     S
C44   H45    0.95033       .     S
H45   C44    0.95033       .     S
C44   C73    1.38534       .     S
C73   C44    1.38534       .     S
C46   C66    1.49708       .     S
C66   C46    1.49708       .     S
C47   H48    0.94964       .     S
H48   C47    0.94964       .     S
C47   C55    1.38439       .     S
C55   C47    1.38439       .     S
C49   C55    1.39644       .     S
C55   C49    1.39644       .     S
C49   C58    1.38556       .     S
C58   C49    1.38556       .     S
C51   H52    0.95011       .     S
H52   C51    0.95011       .     S
C51   C81    1.39107       .     S
C81   C51    1.39107       .     S
C53   H54    0.95014       .     S
H54   C53    0.95014       .     S
C53   C60    1.38330       .     S
C60   C53    1.38330       .     S
C55   H56    0.95105       .     S
H56   C55    0.95105       .     S
C57   C75    1.39727       .     S
C75   C57    1.39727       .     S
C58   H59    0.94966       .     S
H59   C58    0.94966       .     S
C58   C79    1.36999       .     S
C79   C58    1.36999       .     S
C60   H61    0.94979       .     S
H61   C60    0.94979       .     S
C62   H63    0.94897       .     S
H63   C62    0.94897       .     S
C64   H65    0.95074       .     S
H65   C64    0.95074       .     S
C66   C81    1.37907       .     S
C81   C66    1.37907       .     S
C66   C87    1.39128       .     S
C87   C66    1.39128       .     S
C67   H68    0.95043       .     S
H68   C67    0.95043       .     S
C67   C75    1.40273       .     S
C75   C67    1.40273       .     S
C70   C85    1.39228       .     S
C85   C70    1.39228       .     S
C71   H72    0.95093       .     S
H72   C71    0.95093       .     S
C71   C87    1.38349       .     S
C87   C71    1.38349       .     S
C73   H74    0.94986       .     S
H74   C73    0.94986       .     S
C75   H76    0.95072       .     S
H76   C75    0.95072       .     S
C77   H78    0.95041       .     S
H78   C77    0.95041       .     S
C77   C85    1.41448       .     S
C85   C77    1.41448       .     S
C79   H80    0.95083       .     S
H80   C79    0.95083       .     S
C81   H82    0.95059       .     S
H82   C81    0.95059       .     S
C83   H84    0.95053       .     S
H84   C83    0.95053       .     S
C85   H86    0.94967       .     S
H86   C85    0.94967       .     S
C87   H88    0.94925   1_565     S
H88   C87    0.94925   1_545     S
O90   H91    0.83940       .     S
H91   O90    0.83940       .     S
O90   C171   1.32112       .     S
C171  O90    1.32112       .     S
O92   H93    0.83929       .     S
H93   O92    0.83929       .     S
O92   C124   1.32245   1_565     S
C124  O92    1.32245   1_545     S
O94   C124   1.19666       .     S
C124  O94    1.19666       .     S
O95   C171   1.20967       .     S
C171  O95    1.20967       .     S
N96   C122   1.35904       .     S
C122  N96    1.35904       .     S
N96   C134   1.31754       .     S
C134  N96    1.31754       .     S
C97   H98    0.95046       .     S
H98   C97    0.95046       .     S
C97   C100   1.41241       .     S
C100  C97    1.41241       .     S
C97   C103   1.36901       .     S
C103  C97    1.36901       .     S
N99   C172   1.34004       .     S
C172  N99    1.34004       .     S
N99   C176   1.32274       .     S
C176  N99    1.32274       .     S
C100  C107   1.49040       .     S
C107  C100   1.49040       .     S
C100  C158   1.37132       .     S
C158  C100   1.37132       .     S
C101  C102   1.49088       .     S
C102  C101   1.49088       .     S
C101  C105   1.39433       .     S
C105  C101   1.39433       .     S
C101  C113   1.41833       .     S
C113  C101   1.41833       .     S
C102  C108   1.35441   1_655     S
C108  C102   1.35441   1_455     S
C102  C125   1.50316       .     S
C125  C102   1.50316       .     S
C103  H104   0.94960       .     S
H104  C103   0.94960       .     S
C103  C120   1.40280       .     S
C120  C103   1.40280       .     S
C105  H106   0.95020       .     S
H106  C105   0.95020       .     S
C105  C146   1.38851       .     S
C146  C105   1.38851       .     S
C107  C136   1.37963       .     S
C136  C107   1.37963       .     S
C107  C154   1.39380       .     S
C154  C107   1.39380       .     S
C108  C112   1.48943       .     S
C112  C108   1.48943       .     S
C108  C120   1.49546       .     S
C120  C108   1.49546       .     S
C109  C130   1.40469   1_556     S
C130  C109   1.40469   1_554     S
C109  C138   1.39172   1_556     S
C138  C109   1.39172   1_554     S
C109  C153   1.48611       .     S
C153  C109   1.48611       .     S
C110  C121   1.50879       .     S
C121  C110   1.50879       .     S
C110  C126   1.38124       .     S
C126  C110   1.38124       .     S
C110  C146   1.41407       .     S
C146  C110   1.41407       .     S
C111  C118   1.37048       .     S
C118  C111   1.37048       .     S
C111  C128   1.36417       .     S
C128  C111   1.36417       .     S
C111  C171   1.49711       .     S
C171  C111   1.49711       .     S
C112  C132   1.37951   1_455     S
C132  C112   1.37951   1_655     S
C112  C169   1.38403       .     S
C169  C112   1.38403       .     S
C113  H114   0.94969       .     S
H114  C113   0.94969       .     S
C113  C126   1.40334       .     S
C126  C113   1.40334       .     S
C115  C124   1.51767       .     S
C124  C115   1.51767       .     S
C115  C149   1.37500       .     S
C149  C115   1.37500       .     S
C115  C178   1.38988       .     S
C178  C115   1.38988       .     S
C116  H117   0.94963       .     S
H117  C116   0.94963       .     S
C116  C121   1.37441       .     S
C121  C116   1.37441       .     S
C116  C128   1.39924       .     S
C128  C116   1.39924       .     S
C118  H119   0.94996       .     S
H119  C118   0.94996       .     S
C118  C162   1.39231       .     S
C162  C118   1.39231       .     S
C120  C144   1.37888       .     S
C144  C120   1.37888       .     S
C121  C162   1.39752       .     S
C162  C121   1.39752       .     S
C122  H123   0.94890       .     S
H123  C122   0.94890       .     S
C122  C136   1.38509       .     S
C136  C122   1.38509       .     S
C125  C140   1.38949       .     S
C140  C125   1.38949       .     S
C125  C142   1.39980   1_655     S
C142  C125   1.39980   1_455     S
C126  H127   0.95050       .     S
H127  C126   0.95050       .     S
C128  H129   0.94964       .     S
H129  C128   0.94964       .     S
C130  H131   0.94937   1_654     S
H131  C130   0.94937   1_456     S
C130  C142   1.38958   1_655     S
C142  C130   1.38958   1_455     S
C132  H133   0.95042       .     S
H133  C132   0.95042       .     S
C132  C165   1.37724   1_655     S
C165  C132   1.37724   1_455     S
C134  H135   0.95010       .     S
H135  C134   0.95010       .     S
C134  C154   1.39042       .     S
C154  C134   1.39042       .     S
C136  H137   0.94941       .     S
H137  C136   0.94941       .     S
C138  H139   0.95051       .     S
H139  C138   0.95051       .     S
C138  C140   1.39459       .     S
C140  C138   1.39459       .     S
C140  H141   0.95072       .     S
H141  C140   0.95072       .     S
C142  H143   0.95120       .     S
H143  C142   0.95120       .     S
C144  H145   0.95039       .     S
H145  C144   0.95039       .     S
C144  C158   1.40770       .     S
C158  C144   1.40770       .     S
C146  H147   0.94999       .     S
H147  C146   0.94999       .     S
C148  C156   1.37353   1_556     S
C156  C148   1.37353   1_554     S
C148  C164   1.50630       .     S
C164  C148   1.50630       .     S
C148  C165   1.38084   1_556     S
C165  C148   1.38084   1_554     S
C149  H150   0.95055       .     S
H150  C149   0.95055       .     S
C149  C160   1.37719       .     S
C160  C149   1.37719       .     S
C151  H152   0.95048       .     S
H152  C151   0.95048       .     S
C151  C153   1.38037       .     S
C153  C151   1.38037       .     S
C151  C178   1.40418       .     S
C178  C151   1.40418       .     S
C153  C160   1.39817       .     S
C160  C153   1.39817       .     S
C154  H155   0.95062       .     S
H155  C154   0.95062       .     S
C156  H157   0.94977       .     S
H157  C156   0.94977       .     S
C156  C169   1.40478       .     S
C169  C156   1.40478       .     S
C158  H159   0.94959       .     S
H159  C158   0.94959       .     S
C160  H161   0.94922   1_655     S
H161  C160   0.94922   1_455     S
C162  H163   0.94977       .     S
H163  C162   0.94977       .     S
C164  C167   1.38833       .     S
C167  C164   1.38833       .     S
C164  C174   1.37070       .     S
C174  C164   1.37070       .     S
C165  H166   0.95019   1_454     S
H166  C165   0.95019   1_656     S
C167  H168   0.94986   1_455     S
H168  C167   0.94986   1_655     S
C167  C172   1.37575       .     S
C172  C167   1.37575       .     S
C169  H170   0.94979       .     S
H170  C169   0.94979       .     S
C172  H173   0.95105       .     S
H173  C172   0.95105       .     S
C174  H175   0.95007       .     S
H175  C174   0.95007       .     S
C174  C176   1.41543       .     S
C176  C174   1.41543       .     S
C176  H177   0.95046       .     S
H177  C176   0.95046       .     S
C178  H179   0.95007       .     S
H179  C178   0.95007       .     S
O180  H181   0.83998       .     S
H181  O180   0.83998       .     S
O180  C209   1.35019       .     S
C209  O180   1.35019       .     S
O182  C218   1.22929       .     S
C218  O182   1.22929       .     S
O183  H184   0.84074       .     S
H184  O183   0.84074       .     S
O183  C218   1.34388       .     S
C218  O183   1.34388       .     S
O185  C209   1.20280       .     S
C209  O185   1.20280       .     S
N186  C238   1.36055       .     S
C238  N186   1.36055       .     S
N186  C240   1.32033       .     S
C240  N186   1.32033       .     S
C187  C190   1.50251       .     S
C190  C187   1.50251       .     S
C187  C203   1.35023       .     S
C203  C187   1.35023       .     S
C187  C255   1.51985       .     S
C255  C187   1.51985       .     S
N188  C232   1.34088       .     S
C232  N188   1.34088       .     S
N188  C242   1.32038       .     S
C242  N188   1.32038       .     S
C189  C194   1.39834       .     S
C194  C189   1.39834       .     S
C189  C203   1.49097       .     S
C203  C189   1.49097       .     S
C189  C216   1.37409       .     S
C216  C189   1.37409       .     S
C190  C198   1.39382       .     S
C198  C190   1.39382       .     S
C190  C207   1.38418       .     S
C207  C190   1.38418       .     S
C191  C197   1.48583       .     S
C197  C191   1.48583       .     S
C191  C212   1.39494   1_554     S
C212  C191   1.39494   1_556     S
C191  C228   1.39856       .     S
C228  C191   1.39856       .     S
C192  C200   1.37249       .     S
C200  C192   1.37249       .     S
C192  C209   1.50565       .     S
C209  C192   1.50565       .     S
C192  C244   1.38639       .     S
C244  C192   1.38639       .     S
C193  C196   1.50247       .     S
C196  C193   1.50247       .     S
C193  C219   1.38052       .     S
C219  C193   1.38052       .     S
C193  C223   1.39555       .     S
C223  C193   1.39555       .     S
C194  H195   0.94989       .     S
H195  C194   0.94989       .     S
C194  C228   1.36545   1_556     S
C228  C194   1.36545   1_554     S
C196  C205   1.38729       .     S
C205  C196   1.38729       .     S
C196  C221   1.38321   1_554     S
C221  C196   1.38321   1_556     S
C197  C210   1.41035       .     S
C210  C197   1.41035       .     S
C197  C236   1.39975       .     S
C236  C197   1.39975       .     S
C198  H199   0.94934       .     S
H199  C198   0.94934       .     S
C198  C221   1.39351       .     S
C221  C198   1.39351       .     S
C200  H201   0.95034       .     S
H201  C200   0.95034       .     S
C200  C214   1.37832       .     S
C214  C200   1.37832       .     S
C202  C218   1.49820       .     S
C218  C202   1.49820       .     S
C202  C225   1.39651       .     S
C225  C202   1.39651       .     S
C202  C234   1.37250       .     S
C234  C202   1.37250       .     S
C203  C267   1.51166       .     S
C267  C203   1.51166       .     S
C204  C214   1.38463       .     S
C214  C204   1.38463       .     S
C204  C246   1.39566       .     S
C246  C204   1.39566       .     S
C204  C250   1.52846       .     S
C250  C204   1.52846       .     S
C205  H206   0.95042       .     S
H206  C205   0.95042       .     S
C205  C207   1.38937   1_554     S
C207  C205   1.38937   1_556     S
C207  H208   0.95020       .     S
H208  C207   0.95020       .     S
C210  H211   0.95069   1_545     S
H211  C210   0.95069   1_565     S
C210  C232   1.39181       .     S
C232  C210   1.39181       .     S
C212  H213   0.94965       .     S
H213  C212   0.94965       .     S
C212  C216   1.39694       .     S
C216  C212   1.39694       .     S
C214  H215   0.95005       .     S
H215  C214   0.95005       .     S
C216  H217   0.95017       .     S
H217  C216   0.95017       .     S
C219  H220   0.94993       .     S
H220  C219   0.94993       .     S
C219  C234   1.38977       .     S
C234  C219   1.38977       .     S
C221  H222   0.94999       .     S
H222  C221   0.94999       .     S
C223  H224   0.94961       .     S
H224  C223   0.94961       .     S
C223  C225   1.38441       .     S
C225  C223   1.38441       .     S
C225  H226   0.94975       .     S
H226  C225   0.94975       .     S
C227  C230   1.41431       .     S
C230  C227   1.41431       .     S
C227  C258   1.39647       .     S
C258  C227   1.39647       .     S
C227  C262   1.48841       .     S
C262  C227   1.48841       .     S
C228  H229   0.94998       .     S
H229  C228   0.94998       .     S
C230  H231   0.95121       .     S
H231  C230   0.95121       .     S
C230  C238   1.37604       .     S
C238  C230   1.37604       .     S
C232  H233   0.94976   1_545     S
H233  C232   0.94976   1_565     S
C234  H235   0.95033       .     S
H235  C234   0.95033       .     S
C236  H237   0.95081       .     S
H237  C236   0.95081       .     S
C236  C242   1.38339       .     S
C242  C236   1.38339       .     S
C238  H239   0.95045       .     S
H239  C238   0.95045       .     S
C240  H241   0.94879       .     S
H241  C240   0.94879       .     S
C240  C258   1.37576       .     S
C258  C240   1.37576       .     S
C242  H243   0.95110       .     S
H243  C242   0.95110       .     S
C244  H245   0.94958       .     S
H245  C244   0.94958       .     S
C244  C246   1.39091       .     S
C246  C244   1.39091       .     S
C246  H247   0.94999       .     S
H247  C246   0.94999       .     S
C248  H249   0.95005       .     S
H249  C248   0.95005       .     S
C248  C250   1.38961       .     S
C250  C248   1.38961       .     S
C248  C256   1.39014       .     S
C256  C248   1.39014       .     S
C250  C251   1.39057       .     S
C251  C250   1.39057       .     S
C251  H252   0.94979       .     S
H252  C251   0.94979       .     S
C251  C253   1.38990       .     S
C253  C251   1.38990       .     S
C253  H254   0.95024       .     S
H254  C253   0.95024       .     S
C253  C255   1.38961       .     S
C255  C253   1.38961       .     S
C255  C256   1.39037       .     S
C256  C255   1.39037       .     S
C256  H257   0.94934       .     S
H257  C256   0.94934       .     S
C258  H259   0.95077       .     S
H259  C258   0.95077       .     S
C260  H261   0.95053       .     S
H261  C260   0.95053       .     S
C260  C262   1.39006       .     S
C262  C260   1.39006       .     S
C260  C268   1.38944       .     S
C268  C260   1.38944       .     S
C262  C263   1.38975       .     S
C263  C262   1.38975       .     S
C263  H264   0.94958       .     S
H264  C263   0.94958       .     S
C263  C265   1.39013       .     S
C265  C263   1.39013       .     S
C265  H266   0.95019       .     S
H266  C265   0.95019       .     S
C265  C267   1.38987       .     S
C267  C265   1.38987       .     S
C267  C268   1.38957       .     S
C268  C267   1.38957       .     S
C268  H269   0.95049       .     S
H269  C268   0.95049       .     S
O270  C296   1.19716       .     S
C296  O270   1.19716       .     S
O271  H272   0.84105       .     S
H272  O271   0.84105       .     S
O271  C321   1.34913       .     S
C321  O271   1.34913       .     S
O273  C296   1.32487       .     S
C296  O273   1.32487       .     S
O273  H359   0.86965   1_554     S
H359  O273   0.86965   1_556     S
O274  C321   1.20098       .     S
C321  O274   1.20098       .     S
N275  C310   1.32718       .     S
C310  N275   1.32718       .     S
N275  C351   1.34807       .     S
C351  N275   1.34807       .     S
N276  C330   1.33397       .     S
C330  N276   1.33397       .     S
N276  C357   1.32298       .     S
C357  N276   1.32298       .     S
C277  C278   1.38936       .     S
C278  C277   1.38936       .     S
C277  C296   1.47633       .     S
C296  C277   1.47633       .     S
C277  C328   1.37151       .     S
C328  C277   1.37151       .     S
C278  H279   0.94917       .     S
H279  C278   0.94917       .     S
C278  C287   1.39068       .     S
C287  C278   1.39068       .     S
C280  C293   1.49636       .     S
C293  C280   1.49636       .     S
C280  C318   1.40016       .     S
C318  C280   1.40016       .     S
C280  C326   1.39923       .     S
C326  C280   1.39923       .     S
C281  H282   0.95030   1_655     S
H282  C281   0.95030   1_455     S
C281  C294   1.41202       .     S
C294  C281   1.41202       .     S
C281  C336   1.38901       .     S
C336  C281   1.38901       .     S
C283  H284   0.95086   1_455     S
H284  C283   0.95086   1_655     S
C283  C289   1.36612   1_455     S
C289  C283   1.36612   1_655     S
C283  C292   1.39367       .     S
C292  C283   1.39367       .     S
C285  H286   0.95080       .     S
H286  C285   0.95080       .     S
C285  C294   1.38951       .     S
C294  C285   1.38951       .     S
C285  C339   1.37882       .     S
C339  C285   1.37882       .     S
C287  H288   0.95013       .     S
H288  C287   0.95013       .     S
C287  C312   1.38168       .     S
C312  C287   1.38168       .     S
C289  H290   0.94891       .     S
H290  C289   0.94891       .     S
C289  C298   1.41399   1_655     S
C298  C289   1.41399   1_455     S
C291  C303   1.39118       .     S
C303  C291   1.39118       .     S
C291  C312   1.49889       .     S
C312  C291   1.49889       .     S
C291  C322   1.39345       .     S
C322  C291   1.39345       .     S
C292  C314   1.50740       .     S
C314  C292   1.50740       .     S
C292  C324   1.39124       .     S
C324  C292   1.39124       .     S
C293  C298   1.49094       .     S
C298  C293   1.49094       .     S
C293  C305   1.37325   1_455     S
C305  C293   1.37325   1_655     S
C294  C305   1.47917       .     S
C305  C294   1.47917       .     S
C295  C321   1.50963       .     S
C321  C295   1.50963       .     S
C295  C332   1.38601       .     S
C332  C295   1.38601       .     S
C295  C349   1.38439       .     S
C349  C295   1.38439       .     S
C297  C315   1.48524       .     S
C315  C297   1.48524       .     S
C297  C336   1.40091       .     S
C336  C297   1.40091       .     S
C297  C339   1.40052       .     S
C339  C297   1.40052       .     S
C298  C301   1.37268       .     S
C301  C298   1.37268       .     S
C299  H300   0.95071       .     S
H300  C299   0.95071       .     S
C299  C308   1.40776       .     S
C308  C299   1.40776       .     S
C299  C313   1.37632       .     S
C313  C299   1.37632       .     S
C301  H302   0.94913       .     S
H302  C301   0.94913       .     S
C301  C324   1.38954       .     S
C324  C301   1.38954       .     S
C303  H304   0.94966       .     S
H304  C303   0.94966       .     S
C303  C326   1.38844       .     S
C326  C303   1.38844       .     S
C305  C313   1.48216       .     S
C313  C305   1.48216       .     S
C306  H307   0.94985       .     S
H307  C306   0.94985       .     S
C306  C315   1.37313       .     S
C315  C306   1.37313       .     S
C306  C330   1.37406       .     S
C330  C306   1.37406       .     S
C308  H309   0.94944       .     S
H309  C308   0.94944       .     S
C308  C338   1.38236       .     S
C338  C308   1.38236       .     S
C310  H311   0.95003       .     S
H311  C310   0.95003       .     S
C310  C316   1.38362       .     S
C316  C310   1.38362       .     S
C312  C347   1.39270       .     S
C347  C312   1.39270       .     S
C313  C345   1.41089       .     S
C345  C313   1.41089       .     S
C314  C334   1.42599       .     S
C334  C314   1.42599       .     S
C314  C343   1.38877       .     S
C343  C314   1.38877       .     S
C315  C355   1.39842       .     S
C355  C315   1.39842       .     S
C316  H317   0.95117       .     S
H317  C316   0.95117       .     S
C316  C320   1.39641       .     S
C320  C316   1.39641       .     S
C318  H319   0.94981       .     S
H319  C318   0.94981       .     S
C318  C322   1.38993       .     S
C322  C318   1.38993       .     S
C320  C338   1.49381       .     S
C338  C320   1.49381       .     S
C320  C353   1.40198       .     S
C353  C320   1.40198       .     S
C322  H323   0.94999       .     S
H323  C322   0.94999       .     S
C324  H325   0.95029       .     S
H325  C324   0.95029       .     S
C326  H327   0.94997       .     S
H327  C326   0.94997       .     S
C328  H329   0.94937       .     S
H329  C328   0.94937       .     S
C328  C347   1.38500       .     S
C347  C328   1.38500       .     S
C330  H331   0.95077       .     S
H331  C330   0.95077       .     S
C332  H333   0.95026       .     S
H333  C332   0.95026       .     S
C332  C343   1.39807       .     S
C343  C332   1.39807       .     S
C334  H335   0.94899       .     S
H335  C334   0.94899       .     S
C334  C349   1.37121       .     S
C349  C334   1.37121       .     S
C336  H337   0.95020   1_655     S
H337  C336   0.95020   1_455     S
C338  C341   1.38300       .     S
C341  C338   1.38300       .     S
C339  H340   0.94980       .     S
H340  C339   0.94980       .     S
C341  H342   0.94992       .     S
H342  C341   0.94992       .     S
C341  C345   1.37833       .     S
C345  C341   1.37833       .     S
C343  H344   0.95006       .     S
H344  C343   0.95006       .     S
C345  H346   0.94967       .     S
H346  C345   0.94967       .     S
C347  H348   0.94979       .     S
H348  C347   0.94979       .     S
C349  H350   0.95052       .     S
H350  C349   0.95052       .     S
C351  H352   0.94938       .     S
H352  C351   0.94938       .     S
C351  C353   1.34833       .     S
C353  C351   1.34833       .     S
C353  H354   0.95037       .     S
H354  C353   0.95037       .     S
C355  H356   0.95085       .     S
H356  C355   0.95085       .     S
C355  C357   1.40652       .     S
C357  C355   1.40652       .     S
C357  H358   0.95112       .     S
H358  C357   0.95112       .     S
N275  H3     1.81720       .     S
H3    N275   1.81720       .     S
N188  H89    1.83826       .     S
H89   N188   1.83826       .     S
N186  H91    1.84687       .     S
H91   N186   1.84687       .     S
N276  H93    1.88789       .     S
H93   N276   1.88789       .     S
N96   H181   1.77511       .     S
H181  N96    1.77511       .     S
N6    H184   1.75298       .     S
H184  N6     1.75298       .     S
N99   H272   1.79767       .     S
H272  N99    1.79767       .     S
N5    H359   1.80063       .     S
H359  N5     1.80063       .     S
C46   O0     1.31545   1_565     S
O0    C46    1.31545   1_545     S
H89   O0     0.84135       .     S
O0    H89    0.84135       .     S
C50   O1     1.20813   1_556     S
O1    C50    1.20813   1_554     S
H3    O2     0.83976   1_554     S
O2    H3     0.83976   1_556     S
C50   O2     1.31365       .     S
O2    C50    1.31365       .     S
C46   O4     1.20215       .     S
O4    C46    1.20215       .     S
C33   N5     1.32880       .     S
N5    C33    1.32880       .     S
C53   N5     1.33061       .     S
N5    C53    1.33061       .     S
C64   N6     1.33262       .     S
N6    C64    1.33262       .     S
C67   N6     1.32811       .     S
N6    C67    1.32811       .     S
C26   C7     1.38285       .     S
C7    C26    1.38285       .     S
C31   C7     1.37171       .     S
C7    C31    1.37171       .     S
C50   C7     1.50478       .     S
C7    C50    1.50478       .     S
C9    C8     1.48756       .     S
C8    C9     1.48756       .     S
C51   C8     1.41025       .     S
C8    C51    1.41025       .     S
C71   C8     1.39045       .     S
C8    C71    1.39045       .     S
C14   C9     1.38438       .     S
C9    C14    1.38438       .     S
C44   C9     1.39506       .     S
C9    C44    1.39506       .     S
H11   C10    0.95028       .     S
C10   H11    0.95028       .     S
C22   C10    1.38641       .     S
C10   C22    1.38641       .     S
C70   C10    1.40779       .     S
C10   C70    1.40779       .     S
H13   C12    0.94996       .     S
C12   H13    0.94996       .     S
C62   C12    1.39318       .     S
C12   C62    1.39318       .     S
C69   C12    1.37237       .     S
C12   C69    1.37237       .     S
H15   C14    0.95042       .     S
C14   H15    0.95042       .     S
C29   C14    1.39871       .     S
C14   C29    1.39871       .     S
H17   C16    0.94944       .     S
C16   H17    0.94944       .     S
C28   C16    1.40027       .     S
C16   C28    1.40027       .     S
C33   C16    1.36536       .     S
C16   C33    1.36536       .     S
C19   C18    1.32519       .     S
C18   C19    1.32519       .     S
C24   C18    1.50815       .     S
C18   C24    1.50815       .     S
C40   C18    1.47248       .     S
C18   C40    1.47248       .     S
C35   C19    1.50801       .     S
C19   C35    1.50801       .     S
C69   C19    1.49824       .     S
C19   C69    1.49824       .     S
H21   C20    0.95049       .     S
C20   H21    0.95049       .     S
C36   C20    1.38039       .     S
C20   C36    1.38039       .     S
C69   C20    1.42313       .     S
C20   C69    1.42313       .     S
H23   C22    0.94984       .     S
C22   H23    0.94984       .     S
C24   C22    1.38796       .     S
C22   C24    1.38796       .     S
C77   C24    1.37342       .     S
C24   C77    1.37342       .     S
C36   C25    1.39788       .     S
C25   C36    1.39788       .     S
C57   C25    1.48199       .     S
C25   C57    1.48199       .     S
C62   C25    1.38776       .     S
C25   C62    1.38776       .     S
H27   C26    0.95014       .     S
C26   H27    0.95014       .     S
C83   C26    1.39819       .     S
C26   C83    1.39819       .     S
C49   C28    1.49344       .     S
C28   C49    1.49344       .     S
C60   C28    1.38022       .     S
C28   C60    1.38022       .     S
H30   C29    0.95050       .     S
C29   H30    0.95050       .     S
C40   C29    1.39173       .     S
C29   C40    1.39173       .     S
H32   C31    0.94912       .     S
C31   H32    0.94912       .     S
C38   C31    1.39839       .     S
C31   C38    1.39839       .     S
H34   C33    0.95130       .     S
C33   H34    0.95130       .     S
C47   C35    1.39346       .     S
C35   C47    1.39346       .     S
C79   C35    1.41129       .     S
C35   C79    1.41129       .     S
H37   C36    0.94934       .     S
C36   H37    0.94934       .     S
H39   C38    0.94981       .     S
C38   H39    0.94981       .     S
C41   C38    1.39500       .     S
C38   C41    1.39500       .     S
C73   C40    1.41801       .     S
C40   C73    1.41801       .     S
C70   C41    1.49197       .     S
C41   C70    1.49197       .     S
C83   C41    1.38327       .     S
C41   C83    1.38327       .     S
H43   C42    0.94949       .     S
C42   H43    0.94949       .     S
C57   C42    1.38592       .     S
C42   C57    1.38592       .     S
C64   C42    1.37548       .     S
C42   C64    1.37548       .     S
H45   C44    0.95033       .     S
C44   H45    0.95033       .     S
C73   C44    1.38534       .     S
C44   C73    1.38534       .     S
C66   C46    1.49708       .     S
C46   C66    1.49708       .     S
H48   C47    0.94964       .     S
C47   H48    0.94964       .     S
C55   C47    1.38439       .     S
C47   C55    1.38439       .     S
C55   C49    1.39644       .     S
C49   C55    1.39644       .     S
C58   C49    1.38556       .     S
C49   C58    1.38556       .     S
H52   C51    0.95011       .     S
C51   H52    0.95011       .     S
C81   C51    1.39107       .     S
C51   C81    1.39107       .     S
H54   C53    0.95014       .     S
C53   H54    0.95014       .     S
C60   C53    1.38330       .     S
C53   C60    1.38330       .     S
H56   C55    0.95105       .     S
C55   H56    0.95105       .     S
C75   C57    1.39727       .     S
C57   C75    1.39727       .     S
H59   C58    0.94966       .     S
C58   H59    0.94966       .     S
C79   C58    1.36999       .     S
C58   C79    1.36999       .     S
H61   C60    0.94979       .     S
C60   H61    0.94979       .     S
H63   C62    0.94897       .     S
C62   H63    0.94897       .     S
H65   C64    0.95074       .     S
C64   H65    0.95074       .     S
C81   C66    1.37907       .     S
C66   C81    1.37907       .     S
C87   C66    1.39128       .     S
C66   C87    1.39128       .     S
H68   C67    0.95043       .     S
C67   H68    0.95043       .     S
C75   C67    1.40273       .     S
C67   C75    1.40273       .     S
C85   C70    1.39228       .     S
C70   C85    1.39228       .     S
H72   C71    0.95093       .     S
C71   H72    0.95093       .     S
C87   C71    1.38349       .     S
C71   C87    1.38349       .     S
H74   C73    0.94986       .     S
C73   H74    0.94986       .     S
H76   C75    0.95072       .     S
C75   H76    0.95072       .     S
H78   C77    0.95041       .     S
C77   H78    0.95041       .     S
C85   C77    1.41448       .     S
C77   C85    1.41448       .     S
H80   C79    0.95083       .     S
C79   H80    0.95083       .     S
H82   C81    0.95059       .     S
C81   H82    0.95059       .     S
H84   C83    0.95053       .     S
C83   H84    0.95053       .     S
H86   C85    0.94967       .     S
C85   H86    0.94967       .     S
H88   C87    0.94925   1_545     S
C87   H88    0.94925   1_565     S
H91   O90    0.83940       .     S
O90   H91    0.83940       .     S
C171  O90    1.32112       .     S
O90   C171   1.32112       .     S
H93   O92    0.83929       .     S
O92   H93    0.83929       .     S
C124  O92    1.32245   1_545     S
O92   C124   1.32245   1_565     S
C124  O94    1.19666       .     S
O94   C124   1.19666       .     S
C171  O95    1.20967       .     S
O95   C171   1.20967       .     S
C122  N96    1.35904       .     S
N96   C122   1.35904       .     S
C134  N96    1.31754       .     S
N96   C134   1.31754       .     S
H98   C97    0.95046       .     S
C97   H98    0.95046       .     S
C100  C97    1.41241       .     S
C97   C100   1.41241       .     S
C103  C97    1.36901       .     S
C97   C103   1.36901       .     S
C172  N99    1.34004       .     S
N99   C172   1.34004       .     S
C176  N99    1.32274       .     S
N99   C176   1.32274       .     S
C107  C100   1.49040       .     S
C100  C107   1.49040       .     S
C158  C100   1.37132       .     S
C100  C158   1.37132       .     S
C102  C101   1.49088       .     S
C101  C102   1.49088       .     S
C105  C101   1.39433       .     S
C101  C105   1.39433       .     S
C113  C101   1.41833       .     S
C101  C113   1.41833       .     S
C108  C102   1.35441   1_455     S
C102  C108   1.35441   1_655     S
C125  C102   1.50316       .     S
C102  C125   1.50316       .     S
H104  C103   0.94960       .     S
C103  H104   0.94960       .     S
C120  C103   1.40280       .     S
C103  C120   1.40280       .     S
H106  C105   0.95020       .     S
C105  H106   0.95020       .     S
C146  C105   1.38851       .     S
C105  C146   1.38851       .     S
C136  C107   1.37963       .     S
C107  C136   1.37963       .     S
C154  C107   1.39380       .     S
C107  C154   1.39380       .     S
C112  C108   1.48943       .     S
C108  C112   1.48943       .     S
C120  C108   1.49546       .     S
C108  C120   1.49546       .     S
C130  C109   1.40469   1_554     S
C109  C130   1.40469   1_556     S
C138  C109   1.39172   1_554     S
C109  C138   1.39172   1_556     S
C153  C109   1.48611       .     S
C109  C153   1.48611       .     S
C121  C110   1.50879       .     S
C110  C121   1.50879       .     S
C126  C110   1.38124       .     S
C110  C126   1.38124       .     S
C146  C110   1.41407       .     S
C110  C146   1.41407       .     S
C118  C111   1.37048       .     S
C111  C118   1.37048       .     S
C128  C111   1.36417       .     S
C111  C128   1.36417       .     S
C171  C111   1.49711       .     S
C111  C171   1.49711       .     S
C132  C112   1.37951   1_655     S
C112  C132   1.37951   1_455     S
C169  C112   1.38403       .     S
C112  C169   1.38403       .     S
H114  C113   0.94969       .     S
C113  H114   0.94969       .     S
C126  C113   1.40334       .     S
C113  C126   1.40334       .     S
C124  C115   1.51767       .     S
C115  C124   1.51767       .     S
C149  C115   1.37500       .     S
C115  C149   1.37500       .     S
C178  C115   1.38988       .     S
C115  C178   1.38988       .     S
H117  C116   0.94963       .     S
C116  H117   0.94963       .     S
C121  C116   1.37441       .     S
C116  C121   1.37441       .     S
C128  C116   1.39924       .     S
C116  C128   1.39924       .     S
H119  C118   0.94996       .     S
C118  H119   0.94996       .     S
C162  C118   1.39231       .     S
C118  C162   1.39231       .     S
C144  C120   1.37888       .     S
C120  C144   1.37888       .     S
C162  C121   1.39752       .     S
C121  C162   1.39752       .     S
H123  C122   0.94890       .     S
C122  H123   0.94890       .     S
C136  C122   1.38509       .     S
C122  C136   1.38509       .     S
C140  C125   1.38949       .     S
C125  C140   1.38949       .     S
C142  C125   1.39980   1_455     S
C125  C142   1.39980   1_655     S
H127  C126   0.95050       .     S
C126  H127   0.95050       .     S
H129  C128   0.94964       .     S
C128  H129   0.94964       .     S
H131  C130   0.94937   1_456     S
C130  H131   0.94937   1_654     S
C142  C130   1.38958   1_455     S
C130  C142   1.38958   1_655     S
H133  C132   0.95042       .     S
C132  H133   0.95042       .     S
C165  C132   1.37724   1_455     S
C132  C165   1.37724   1_655     S
H135  C134   0.95010       .     S
C134  H135   0.95010       .     S
C154  C134   1.39042       .     S
C134  C154   1.39042       .     S
H137  C136   0.94941       .     S
C136  H137   0.94941       .     S
H139  C138   0.95051       .     S
C138  H139   0.95051       .     S
C140  C138   1.39459       .     S
C138  C140   1.39459       .     S
H141  C140   0.95072       .     S
C140  H141   0.95072       .     S
H143  C142   0.95120       .     S
C142  H143   0.95120       .     S
H145  C144   0.95039       .     S
C144  H145   0.95039       .     S
C158  C144   1.40770       .     S
C144  C158   1.40770       .     S
H147  C146   0.94999       .     S
C146  H147   0.94999       .     S
C156  C148   1.37353   1_554     S
C148  C156   1.37353   1_556     S
C164  C148   1.50630       .     S
C148  C164   1.50630       .     S
C165  C148   1.38084   1_554     S
C148  C165   1.38084   1_556     S
H150  C149   0.95055       .     S
C149  H150   0.95055       .     S
C160  C149   1.37719       .     S
C149  C160   1.37719       .     S
H152  C151   0.95048       .     S
C151  H152   0.95048       .     S
C153  C151   1.38037       .     S
C151  C153   1.38037       .     S
C178  C151   1.40418       .     S
C151  C178   1.40418       .     S
C160  C153   1.39817       .     S
C153  C160   1.39817       .     S
H155  C154   0.95062       .     S
C154  H155   0.95062       .     S
H157  C156   0.94977       .     S
C156  H157   0.94977       .     S
C169  C156   1.40478       .     S
C156  C169   1.40478       .     S
H159  C158   0.94959       .     S
C158  H159   0.94959       .     S
H161  C160   0.94922   1_455     S
C160  H161   0.94922   1_655     S
H163  C162   0.94977       .     S
C162  H163   0.94977       .     S
C167  C164   1.38833       .     S
C164  C167   1.38833       .     S
C174  C164   1.37070       .     S
C164  C174   1.37070       .     S
H166  C165   0.95019   1_656     S
C165  H166   0.95019   1_454     S
H168  C167   0.94986   1_655     S
C167  H168   0.94986   1_455     S
C172  C167   1.37575       .     S
C167  C172   1.37575       .     S
H170  C169   0.94979       .     S
C169  H170   0.94979       .     S
H173  C172   0.95105       .     S
C172  H173   0.95105       .     S
H175  C174   0.95007       .     S
C174  H175   0.95007       .     S
C176  C174   1.41543       .     S
C174  C176   1.41543       .     S
H177  C176   0.95046       .     S
C176  H177   0.95046       .     S
H179  C178   0.95007       .     S
C178  H179   0.95007       .     S
H181  O180   0.83998       .     S
O180  H181   0.83998       .     S
C209  O180   1.35019       .     S
O180  C209   1.35019       .     S
C218  O182   1.22929       .     S
O182  C218   1.22929       .     S
H184  O183   0.84074       .     S
O183  H184   0.84074       .     S
C218  O183   1.34388       .     S
O183  C218   1.34388       .     S
C209  O185   1.20280       .     S
O185  C209   1.20280       .     S
C238  N186   1.36055       .     S
N186  C238   1.36055       .     S
C240  N186   1.32033       .     S
N186  C240   1.32033       .     S
C190  C187   1.50251       .     S
C187  C190   1.50251       .     S
C203  C187   1.35023       .     S
C187  C203   1.35023       .     S
C255  C187   1.51985       .     S
C187  C255   1.51985       .     S
C232  N188   1.34088       .     S
N188  C232   1.34088       .     S
C242  N188   1.32038       .     S
N188  C242   1.32038       .     S
C194  C189   1.39834       .     S
C189  C194   1.39834       .     S
C203  C189   1.49097       .     S
C189  C203   1.49097       .     S
C216  C189   1.37409       .     S
C189  C216   1.37409       .     S
C198  C190   1.39382       .     S
C190  C198   1.39382       .     S
C207  C190   1.38418       .     S
C190  C207   1.38418       .     S
C197  C191   1.48583       .     S
C191  C197   1.48583       .     S
C212  C191   1.39494   1_556     S
C191  C212   1.39494   1_554     S
C228  C191   1.39856       .     S
C191  C228   1.39856       .     S
C200  C192   1.37249       .     S
C192  C200   1.37249       .     S
C209  C192   1.50565       .     S
C192  C209   1.50565       .     S
C244  C192   1.38639       .     S
C192  C244   1.38639       .     S
C196  C193   1.50247       .     S
C193  C196   1.50247       .     S
C219  C193   1.38052       .     S
C193  C219   1.38052       .     S
C223  C193   1.39555       .     S
C193  C223   1.39555       .     S
H195  C194   0.94989       .     S
C194  H195   0.94989       .     S
C228  C194   1.36545   1_554     S
C194  C228   1.36545   1_556     S
C205  C196   1.38729       .     S
C196  C205   1.38729       .     S
C221  C196   1.38321   1_556     S
C196  C221   1.38321   1_554     S
C210  C197   1.41035       .     S
C197  C210   1.41035       .     S
C236  C197   1.39975       .     S
C197  C236   1.39975       .     S
H199  C198   0.94934       .     S
C198  H199   0.94934       .     S
C221  C198   1.39351       .     S
C198  C221   1.39351       .     S
H201  C200   0.95034       .     S
C200  H201   0.95034       .     S
C214  C200   1.37832       .     S
C200  C214   1.37832       .     S
C218  C202   1.49820       .     S
C202  C218   1.49820       .     S
C225  C202   1.39651       .     S
C202  C225   1.39651       .     S
C234  C202   1.37250       .     S
C202  C234   1.37250       .     S
C267  C203   1.51166       .     S
C203  C267   1.51166       .     S
C214  C204   1.38463       .     S
C204  C214   1.38463       .     S
C246  C204   1.39566       .     S
C204  C246   1.39566       .     S
C250  C204   1.52846       .     S
C204  C250   1.52846       .     S
H206  C205   0.95042       .     S
C205  H206   0.95042       .     S
C207  C205   1.38937   1_556     S
C205  C207   1.38937   1_554     S
H208  C207   0.95020       .     S
C207  H208   0.95020       .     S
H211  C210   0.95069   1_565     S
C210  H211   0.95069   1_545     S
C232  C210   1.39181       .     S
C210  C232   1.39181       .     S
H213  C212   0.94965       .     S
C212  H213   0.94965       .     S
C216  C212   1.39694       .     S
C212  C216   1.39694       .     S
H215  C214   0.95005       .     S
C214  H215   0.95005       .     S
H217  C216   0.95017       .     S
C216  H217   0.95017       .     S
H220  C219   0.94993       .     S
C219  H220   0.94993       .     S
C234  C219   1.38977       .     S
C219  C234   1.38977       .     S
H222  C221   0.94999       .     S
C221  H222   0.94999       .     S
H224  C223   0.94961       .     S
C223  H224   0.94961       .     S
C225  C223   1.38441       .     S
C223  C225   1.38441       .     S
H226  C225   0.94975       .     S
C225  H226   0.94975       .     S
C230  C227   1.41431       .     S
C227  C230   1.41431       .     S
C258  C227   1.39647       .     S
C227  C258   1.39647       .     S
C262  C227   1.48841       .     S
C227  C262   1.48841       .     S
H229  C228   0.94998       .     S
C228  H229   0.94998       .     S
H231  C230   0.95121       .     S
C230  H231   0.95121       .     S
C238  C230   1.37604       .     S
C230  C238   1.37604       .     S
H233  C232   0.94976   1_565     S
C232  H233   0.94976   1_545     S
H235  C234   0.95033       .     S
C234  H235   0.95033       .     S
H237  C236   0.95081       .     S
C236  H237   0.95081       .     S
C242  C236   1.38339       .     S
C236  C242   1.38339       .     S
H239  C238   0.95045       .     S
C238  H239   0.95045       .     S
H241  C240   0.94879       .     S
C240  H241   0.94879       .     S
C258  C240   1.37576       .     S
C240  C258   1.37576       .     S
H243  C242   0.95110       .     S
C242  H243   0.95110       .     S
H245  C244   0.94958       .     S
C244  H245   0.94958       .     S
C246  C244   1.39091       .     S
C244  C246   1.39091       .     S
H247  C246   0.94999       .     S
C246  H247   0.94999       .     S
H249  C248   0.95005       .     S
C248  H249   0.95005       .     S
C250  C248   1.38961       .     S
C248  C250   1.38961       .     S
C256  C248   1.39014       .     S
C248  C256   1.39014       .     S
C251  C250   1.39057       .     S
C250  C251   1.39057       .     S
H252  C251   0.94979       .     S
C251  H252   0.94979       .     S
C253  C251   1.38990       .     S
C251  C253   1.38990       .     S
H254  C253   0.95024       .     S
C253  H254   0.95024       .     S
C255  C253   1.38961       .     S
C253  C255   1.38961       .     S
C256  C255   1.39037       .     S
C255  C256   1.39037       .     S
H257  C256   0.94934       .     S
C256  H257   0.94934       .     S
H259  C258   0.95077       .     S
C258  H259   0.95077       .     S
H261  C260   0.95053       .     S
C260  H261   0.95053       .     S
C262  C260   1.39006       .     S
C260  C262   1.39006       .     S
C268  C260   1.38944       .     S
C260  C268   1.38944       .     S
C263  C262   1.38975       .     S
C262  C263   1.38975       .     S
H264  C263   0.94958       .     S
C263  H264   0.94958       .     S
C265  C263   1.39013       .     S
C263  C265   1.39013       .     S
H266  C265   0.95019       .     S
C265  H266   0.95019       .     S
C267  C265   1.38987       .     S
C265  C267   1.38987       .     S
C268  C267   1.38957       .     S
C267  C268   1.38957       .     S
H269  C268   0.95049       .     S
C268  H269   0.95049       .     S
C296  O270   1.19716       .     S
O270  C296   1.19716       .     S
H272  O271   0.84105       .     S
O271  H272   0.84105       .     S
C321  O271   1.34913       .     S
O271  C321   1.34913       .     S
C296  O273   1.32487       .     S
O273  C296   1.32487       .     S
H359  O273   0.86965   1_556     S
O273  H359   0.86965   1_554     S
C321  O274   1.20098       .     S
O274  C321   1.20098       .     S
C310  N275   1.32718       .     S
N275  C310   1.32718       .     S
C351  N275   1.34807       .     S
N275  C351   1.34807       .     S
C330  N276   1.33397       .     S
N276  C330   1.33397       .     S
C357  N276   1.32298       .     S
N276  C357   1.32298       .     S
C278  C277   1.38936       .     S
C277  C278   1.38936       .     S
C296  C277   1.47633       .     S
C277  C296   1.47633       .     S
C328  C277   1.37151       .     S
C277  C328   1.37151       .     S
H279  C278   0.94917       .     S
C278  H279   0.94917       .     S
C287  C278   1.39068       .     S
C278  C287   1.39068       .     S
C293  C280   1.49636       .     S
C280  C293   1.49636       .     S
C318  C280   1.40016       .     S
C280  C318   1.40016       .     S
C326  C280   1.39923       .     S
C280  C326   1.39923       .     S
H282  C281   0.95030   1_455     S
C281  H282   0.95030   1_655     S
C294  C281   1.41202       .     S
C281  C294   1.41202       .     S
C336  C281   1.38901       .     S
C281  C336   1.38901       .     S
H284  C283   0.95086   1_655     S
C283  H284   0.95086   1_455     S
C289  C283   1.36612   1_655     S
C283  C289   1.36612   1_455     S
C292  C283   1.39367       .     S
C283  C292   1.39367       .     S
H286  C285   0.95080       .     S
C285  H286   0.95080       .     S
C294  C285   1.38951       .     S
C285  C294   1.38951       .     S
C339  C285   1.37882       .     S
C285  C339   1.37882       .     S
H288  C287   0.95013       .     S
C287  H288   0.95013       .     S
C312  C287   1.38168       .     S
C287  C312   1.38168       .     S
H290  C289   0.94891       .     S
C289  H290   0.94891       .     S
C298  C289   1.41399   1_455     S
C289  C298   1.41399   1_655     S
C303  C291   1.39118       .     S
C291  C303   1.39118       .     S
C312  C291   1.49889       .     S
C291  C312   1.49889       .     S
C322  C291   1.39345       .     S
C291  C322   1.39345       .     S
C314  C292   1.50740       .     S
C292  C314   1.50740       .     S
C324  C292   1.39124       .     S
C292  C324   1.39124       .     S
C298  C293   1.49094       .     S
C293  C298   1.49094       .     S
C305  C293   1.37325   1_655     S
C293  C305   1.37325   1_455     S
C305  C294   1.47917       .     S
C294  C305   1.47917       .     S
C321  C295   1.50963       .     S
C295  C321   1.50963       .     S
C332  C295   1.38601       .     S
C295  C332   1.38601       .     S
C349  C295   1.38439       .     S
C295  C349   1.38439       .     S
C315  C297   1.48524       .     S
C297  C315   1.48524       .     S
C336  C297   1.40091       .     S
C297  C336   1.40091       .     S
C339  C297   1.40052       .     S
C297  C339   1.40052       .     S
C301  C298   1.37268       .     S
C298  C301   1.37268       .     S
H300  C299   0.95071       .     S
C299  H300   0.95071       .     S
C308  C299   1.40776       .     S
C299  C308   1.40776       .     S
C313  C299   1.37632       .     S
C299  C313   1.37632       .     S
H302  C301   0.94913       .     S
C301  H302   0.94913       .     S
C324  C301   1.38954       .     S
C301  C324   1.38954       .     S
H304  C303   0.94966       .     S
C303  H304   0.94966       .     S
C326  C303   1.38844       .     S
C303  C326   1.38844       .     S
C313  C305   1.48216       .     S
C305  C313   1.48216       .     S
H307  C306   0.94985       .     S
C306  H307   0.94985       .     S
C315  C306   1.37313       .     S
C306  C315   1.37313       .     S
C330  C306   1.37406       .     S
C306  C330   1.37406       .     S
H309  C308   0.94944       .     S
C308  H309   0.94944       .     S
C338  C308   1.38236       .     S
C308  C338   1.38236       .     S
H311  C310   0.95003       .     S
C310  H311   0.95003       .     S
C316  C310   1.38362       .     S
C310  C316   1.38362       .     S
C347  C312   1.39270       .     S
C312  C347   1.39270       .     S
C345  C313   1.41089       .     S
C313  C345   1.41089       .     S
C334  C314   1.42599       .     S
C314  C334   1.42599       .     S
C343  C314   1.38877       .     S
C314  C343   1.38877       .     S
C355  C315   1.39842       .     S
C315  C355   1.39842       .     S
H317  C316   0.95117       .     S
C316  H317   0.95117       .     S
C320  C316   1.39641       .     S
C316  C320   1.39641       .     S
H319  C318   0.94981       .     S
C318  H319   0.94981       .     S
C322  C318   1.38993       .     S
C318  C322   1.38993       .     S
C338  C320   1.49381       .     S
C320  C338   1.49381       .     S
C353  C320   1.40198       .     S
C320  C353   1.40198       .     S
H323  C322   0.94999       .     S
C322  H323   0.94999       .     S
H325  C324   0.95029       .     S
C324  H325   0.95029       .     S
H327  C326   0.94997       .     S
C326  H327   0.94997       .     S
H329  C328   0.94937       .     S
C328  H329   0.94937       .     S
C347  C328   1.38500       .     S
C328  C347   1.38500       .     S
H331  C330   0.95077       .     S
C330  H331   0.95077       .     S
H333  C332   0.95026       .     S
C332  H333   0.95026       .     S
C343  C332   1.39807       .     S
C332  C343   1.39807       .     S
H335  C334   0.94899       .     S
C334  H335   0.94899       .     S
C349  C334   1.37121       .     S
C334  C349   1.37121       .     S
H337  C336   0.95020   1_455     S
C336  H337   0.95020   1_655     S
C341  C338   1.38300       .     S
C338  C341   1.38300       .     S
H340  C339   0.94980       .     S
C339  H340   0.94980       .     S
H342  C341   0.94992       .     S
C341  H342   0.94992       .     S
C345  C341   1.37833       .     S
C341  C345   1.37833       .     S
H344  C343   0.95006       .     S
C343  H344   0.95006       .     S
H346  C345   0.94967       .     S
C345  H346   0.94967       .     S
H348  C347   0.94979       .     S
C347  H348   0.94979       .     S
H350  C349   0.95052       .     S
C349  H350   0.95052       .     S
H352  C351   0.94938       .     S
C351  H352   0.94938       .     S
C353  C351   1.34833       .     S
C351  C353   1.34833       .     S
H354  C353   0.95037       .     S
C353  H354   0.95037       .     S
H356  C355   0.95085       .     S
C355  H356   0.95085       .     S
C357  C355   1.40652       .     S
C355  C357   1.40652       .     S
H358  C357   0.95112       .     S
C357  H358   0.95112       .     S
