data_I
_chemical_name_common  '/data/user2/wty/HOF/MOFDiff/mofdiff/data/test/260-hof-nbdadma'
_cell_length_a 14.69650
_cell_length_b 15.92930
_cell_length_c 24.02120
_cell_angle_alpha 84.69900
_cell_angle_beta  80.94400
_cell_angle_gamma 68.80000
_space_group_name_H-M_alt      'P 1'


loop_
_space_group_symop_operation_xyz
  'x, y, z' 

loop_
_atom_site_label
_atom_site_fract_x
_atom_site_fract_y
_atom_site_fract_z
_atom_site_type_symbol
O0     0.19144  0.10408  0.80559     O
O1     0.13108  0.25433   0.7974     O
O2     0.95148  0.35565  0.05071     O
O3      0.9544   0.4283  0.96654     O
O4     0.91542  0.94055  0.51351     O
O5       0.908  0.01449  0.42976     O
O6     0.06728   0.6094  0.52237     O
O7     0.10202  0.53414   0.4429     O
O8     0.44056  0.18967   0.0943     O
O9     0.54219  0.11754  0.02035     O
O10    0.57995  0.27432   0.8393     O
O11    0.49781  0.42246  0.83064     O
N12    0.17334   0.7738  0.10724     N
C13     0.9762  0.35805  0.99719     C
C14    0.03385  0.27009  0.97056     C
H15    0.13929  0.24765  0.75985     H
H16    0.88067  0.99116  0.53139     H
H17    0.91501   0.4814  0.98134     H
H18    0.52394  0.42523  0.79575     H
C19    0.06466  0.26873  0.91245     C
H20    0.04972  0.32301  0.88991     H
C21    0.11811  0.18541  0.88823     C
C22     0.1081  0.10668  0.97936     C
C23    0.14009  0.10518  0.92148     C
H24    0.17709  0.04933  0.90441     H
C25    0.05458  0.19024  0.00389     C
H26    0.03242   0.1925  0.04326     H
C27    0.14886  0.18246  0.82614     C
H28    0.54829  0.06781  0.04245     H
C29    0.23007  0.86686  0.03283     C
H30    0.29027  0.81802  0.02462     H
C31    0.15846  0.85693  0.07573     C
C32    0.07109  0.92989  0.08734     C
H33    0.02155  0.92395  0.11635     H
C34    0.05595   0.0109  0.05695     C
H35    0.99648  0.06026   0.0658     H
C36    0.12645  0.02106  0.01371     C
C37    0.21366  0.94775  0.00216     C
H38    0.26266  0.95347   0.9727     H
C39     0.2268  0.69054  0.08092     C
C40    0.28642  0.61769  0.11084     C
H41    0.29161  0.62376  0.14908     H
C42    0.33788  0.53694  0.08542     C
H43     0.3776  0.48785  0.10666     H
C44    0.33307  0.52548  0.02905     C
C45    0.46471  0.27432  0.01005     C
C46    0.22055  0.67945  0.02494     C
H47    0.17947  0.72806  0.00401     H
C48    0.39006  0.43862  0.00244     C
C49    0.40831   0.3568  0.03402     C
H50    0.38154  0.35768  0.07272     H
C51    0.27356  0.59834  0.99949     C
H52    0.26909  0.59248  0.96111     H
C53    0.50358  0.27188  0.95305     C
H54    0.54298  0.21612  0.93652     H
C55    0.48388  0.35242  0.92057     C
C56    0.42815  0.43465  0.94469     C
H57    0.41564  0.48869  0.92199     H
C58    0.52395  0.34767  0.85956     C
C59    0.48235  0.18797  0.04519     C
C60     0.1413  0.77499  0.16622     C
C61    0.10515  0.70913  0.19272     C
H62    0.09995   0.6647  0.17087     H
C63    0.07708  0.70819  0.25015     C
H64    0.05462  0.66192  0.26753     H
C65      0.081  0.77392  0.28333     C
C66    0.11391  0.84112  0.25631     C
H67      0.115  0.88775  0.27787     H
C68    0.14501  0.84145  0.19883     C
H69    0.16887  0.88695  0.18159     H
C70    0.05148  0.77359  0.34512     C
C71    0.07129  0.69283  0.37748     C
H72    0.10118  0.63703  0.35931     H
C73    0.04778   0.6932  0.43595     C
C74    0.00241  0.77419  0.46333     C
H75    0.98674  0.77442  0.50324     H
C76    0.98026   0.8551   0.4313     C
C77    0.00382  0.85515  0.37307     C
H78    0.98766  0.91071  0.35184     H
C79    0.93062   0.9424  0.46004     C
C80    0.07357  0.60615  0.47087     C
O81    0.56739  0.97707  0.07786     O
O82    0.65732  0.90544  0.00085     O
O83    0.83242  0.50373  0.09516     O
O84    0.83592  0.57935  0.01223     O
O85    0.82322   0.0937  0.56229     O
O86    0.82821  0.16831  0.47869     O
O87    0.65861  0.26548  0.73301     O
O88     0.5737  0.41257  0.72471     O
O89    0.23458  0.09764  0.69677     O
O90    0.15628  0.24523  0.68767     O
O91    0.14467  0.39557  0.50372     O
O92    0.21008  0.31957  0.42443     O
N93    0.53699  0.74185  0.41706     N
H94    0.21944   0.0985  0.73454     H
H95    0.87065  0.45498  0.07651     H
H96    0.86038  0.11613  0.46134     H
H97    0.12963  0.44764  0.48383     H
H98    0.63527  0.26273  0.76972     H
C99    0.19204  0.32311   0.4762     C
C100   0.22537  0.23862  0.51317     C
C101   0.20221  0.24306  0.57119     C
H102   0.16703  0.29935  0.58812     H
C103   0.23107  0.16401  0.60448     C
C104   0.28358  0.08135  0.57987     C
H105   0.30229  0.02799  0.60316     H
C106   0.30908  0.07594  0.52135     C
C107   0.27866  0.15622  0.48852     C
H108   0.29474  0.15436  0.44866     H
C109   0.20572  0.16962  0.66673     C
C110   0.35895  0.90808  0.51712     C
H111   0.31463  0.90846  0.55055     H
C112    0.4131  0.82714  0.49164     C
H113   0.40437   0.7731  0.50718     H
C114   0.48074   0.8246  0.44303     C
C115   0.49178  0.90445  0.42147     C
H116   0.53822  0.90371    0.389     H
C117   0.43604  0.98578  0.44654     C
H118   0.44439  0.03978  0.43059     H
C119   0.36823  0.98944  0.49457     C
C120   0.57086  0.66122  0.45042     C
C121   0.59867  0.66162  0.50319     C
H122   0.59566  0.71659  0.51715     H
C123   0.63072  0.58228  0.53552     C
H124   0.64903  0.58388   0.5715     H
C125   0.63666      0.5  0.51626     C
C126   0.60936   0.5001  0.46322     C
H127   0.61384  0.44488  0.44893     H
C128   0.57571  0.57938  0.43085     C
H129    0.5559  0.57805  0.39525     H
C130   0.66835   0.4157  0.55119     C
C131   0.64155  0.41673  0.60963     C
H132   0.60621  0.47245   0.6272     H
C133    0.6662  0.33665  0.64247     C
C134   0.71964  0.25409  0.61741     C
H135   0.73655  0.19962  0.63975     H
C136   0.74763  0.25295   0.5593     C
C137   0.72201  0.33323  0.52636     C
H138   0.74133  0.33158  0.48671     H
C139   0.80366  0.16557  0.53165     C
C140   0.63016  0.33984  0.70401     C
C141   0.56492   0.7402  0.35757     C
C142   0.65733  0.68269  0.33427     C
H143   0.70221  0.64439  0.35825     H
C144    0.6838  0.68137  0.27599     C
H145   0.74596  0.64048  0.26066     H
C146   0.62096  0.73887  0.23955     C
C147   0.52923  0.79614  0.26339     C
H148   0.48521  0.83594  0.23952     H
C149   0.50081  0.79626  0.32136     C
H150   0.43718  0.83483  0.33648     H
C151   0.65157  0.73914  0.17744     C
C152   0.71169  0.65955  0.15059     C
H153   0.73176  0.60435  0.17205     H
C154   0.74231  0.66076  0.09253     C
C155   0.71343  0.74051  0.06022     C
H156   0.73436  0.74092  0.02074     H
C157   0.65333  0.81994  0.08644     C
C158   0.62304  0.81913   0.1445     C
H159    0.5824  0.87379  0.16192     H
C160   0.80724   0.5755  0.06533     C
C161   0.62439  0.90684   0.0514     C
N162     0.987  0.56143  0.62332     N
H163   0.99673  0.56897  0.58511     H
H164   0.92749  0.55478   0.6327     H
C165    0.0625   0.4777  0.63925     C
H166   0.12763   0.4783  0.62273     H
H167   0.05171  0.42658   0.6253     H
H168   0.05889  0.47184  0.68044     H
C169    0.9813   0.6437  0.64767     C
H170   0.94861  0.64642  0.68665     H
H171   0.94354  0.69596  0.62554     H
H172    0.0479   0.6442  0.64723     H
N173   0.65469  0.95318  0.88919     N
H174   0.61175  0.94227  0.86995     H
H175   0.63175  0.95167   0.9266     H
C176    0.7512   0.8803   0.8788     C
H177   0.77249  0.87559  0.83808     H
H178    0.7457   0.8232  0.89471     H
H179   0.79961   0.8938   0.8967     H
C180    0.6556    0.044   0.8728     C
H181   0.70203  0.05644  0.89297     H
H182   0.58942  0.08834  0.88243     H
H183   0.67581  0.04779  0.83206     H
loop_
_geom_bond_atom_site_label_1
_geom_bond_atom_site_label_2
_geom_bond_distance
_geom_bond_site_symmetry_2
_ccdc_geom_bond_type
H15   O90    1.71440       .     S
O90   H15    1.71440       .     S
H16   O85    1.72078   1_565     S
O85   H16    1.72078   1_545     S
H17   O84    1.72245   1_556     S
O84   H17    1.72245   1_554     S
H18   O88    1.74688       .     S
O88   H18    1.74688       .     S
H28   O81    1.56400   1_545     S
O81   H28    1.56400   1_565     S
H94   O0     1.69428       .     S
O0    H94    1.69428       .     S
H95   O2     1.69964       .     S
O2    H95    1.69964       .     S
H96   O5     1.71082       .     S
O5    H96    1.71082       .     S
H97   O7     1.58138       .     S
O7    H97    1.58138       .     S
H98   O10    1.73474       .     S
O10   H98    1.73474       .     S
H163  O6     1.89019   1_655     S
O6    H163   1.89019   1_455     S
H175  O82    1.90599   1_556     S
O82   H175   1.90599   1_554     S
O0    C27    1.28284       .     S
C27   O0     1.28284       .     S
O1    H15    0.90203       .     S
H15   O1     0.90203       .     S
O1    C27    1.24496       .     S
C27   O1     1.24496       .     S
O2    C13    1.28070   1_554     S
C13   O2     1.28070   1_556     S
O3    C13    1.24887       .     S
C13   O3     1.24887       .     S
O3    H17    0.90200       .     S
H17   O3     0.90200       .     S
O4    H16    0.89015       .     S
H16   O4     0.89015       .     S
O4    C79    1.26804       .     S
C79   O4     1.26804       .     S
O5    C79    1.26647   1_545     S
C79   O5     1.26647   1_565     S
O6    C80    1.23044       .     S
C80   O6     1.23044       .     S
O7    C80    1.28417       .     S
C80   O7     1.28417       .     S
O8    C59    1.23910       .     S
C59   O8     1.23910       .     S
O9    H28    0.89627       .     S
H28   O9     0.89627       .     S
O9    C59    1.27790       .     S
C59   O9     1.27790       .     S
O10   C58    1.25015       .     S
C58   O10    1.25015       .     S
O11   H18    0.86944       .     S
H18   O11    0.86944       .     S
O11   C58    1.28436       .     S
C58   O11    1.28436       .     S
N12   C31    1.42538       .     S
C31   N12    1.42538       .     S
N12   C39    1.42160       .     S
C39   N12    1.42160       .     S
N12   C60    1.42050       .     S
C60   N12    1.42050       .     S
C13   C14    1.49219   1_655     S
C14   C13    1.49219   1_455     S
C14   C19    1.39767       .     S
C19   C14    1.39767       .     S
C14   C25    1.40001   1_556     S
C25   C14    1.40001   1_554     S
C19   H20    0.95005       .     S
H20   C19    0.95005       .     S
C19   C21    1.40066       .     S
C21   C19    1.40066       .     S
C21   C23    1.40343       .     S
C23   C21    1.40343       .     S
C21   C27    1.48874       .     S
C27   C21    1.48874       .     S
C22   C23    1.39532       .     S
C23   C22    1.39532       .     S
C22   C25    1.40691   1_556     S
C25   C22    1.40691   1_554     S
C22   C36    1.48654   1_556     S
C36   C22    1.48654   1_554     S
C23   H24    0.95007       .     S
H24   C23    0.95007       .     S
C25   H26    0.95005       .     S
H26   C25    0.95005       .     S
C29   H30    0.95000       .     S
H30   C29    0.95000       .     S
C29   C31    1.39407       .     S
C31   C29    1.39407       .     S
C29   C37    1.38456       .     S
C37   C29    1.38456       .     S
C31   C32    1.39466       .     S
C32   C31    1.39466       .     S
C32   H33    0.95003       .     S
H33   C32    0.95003       .     S
C32   C34    1.38457   1_565     S
C34   C32    1.38457   1_545     S
C34   H35    0.95009   1_455     S
H35   C34    0.95009   1_655     S
C34   C36    1.38924       .     S
C36   C34    1.38924       .     S
C36   C37    1.39600   1_545     S
C37   C36    1.39600   1_565     S
C37   H38    0.95015   1_554     S
H38   C37    0.95015   1_556     S
C39   C40    1.39272       .     S
C40   C39    1.39272       .     S
C39   C46    1.39370       .     S
C46   C39    1.39370       .     S
C40   H41    0.95013       .     S
H41   C40    0.95013       .     S
C40   C42    1.37679       .     S
C42   C40    1.37679       .     S
C42   H43    0.94997       .     S
H43   C42    0.94997       .     S
C42   C44    1.39892       .     S
C44   C42    1.39892       .     S
C44   C48    1.47690       .     S
C48   C44    1.47690       .     S
C44   C51    1.38751   1_554     S
C51   C44    1.38751   1_556     S
C45   C49    1.39523       .     S
C49   C45    1.39523       .     S
C45   C53    1.39647   1_554     S
C53   C45    1.39647   1_556     S
C45   C59    1.50604       .     S
C59   C45    1.50604       .     S
C46   H47    0.94992       .     S
H47   C46    0.94992       .     S
C46   C51    1.38493   1_554     S
C51   C46    1.38493   1_556     S
C48   C49    1.40521       .     S
C49   C48    1.40521       .     S
C48   C56    1.40993   1_554     S
C56   C48    1.40993   1_556     S
C49   H50    0.94998       .     S
H50   C49    0.94998       .     S
C51   H52    0.94994       .     S
H52   C51    0.94994       .     S
C53   H54    0.95010       .     S
H54   C53    0.95010       .     S
C53   C55    1.39857       .     S
C55   C53    1.39857       .     S
C55   C56    1.39183       .     S
C56   C55    1.39183       .     S
C55   C58    1.48892       .     S
C58   C55    1.48892       .     S
C56   H57    0.95000       .     S
H57   C56    0.95000       .     S
C60   C61    1.40048       .     S
C61   C60    1.40048       .     S
C60   C68    1.39491       .     S
C68   C60    1.39491       .     S
C61   H62    0.95005       .     S
H62   C61    0.95005       .     S
C61   C63    1.37660       .     S
C63   C61    1.37660       .     S
C63   H64    0.94985       .     S
H64   C63    0.94985       .     S
C63   C65    1.39539       .     S
C65   C63    1.39539       .     S
C65   C66    1.39582       .     S
C66   C65    1.39582       .     S
C65   C70    1.47946       .     S
C70   C65    1.47946       .     S
C66   H67    0.95000       .     S
H67   C66    0.95000       .     S
C66   C68    1.38459       .     S
C68   C66    1.38459       .     S
C68   H69    0.94995       .     S
H69   C68    0.94995       .     S
C70   C71    1.39983       .     S
C71   C70    1.39983       .     S
C70   C77    1.40864       .     S
C77   C70    1.40864       .     S
C71   H72    0.94998       .     S
H72   C71    0.94998       .     S
C71   C73    1.39262       .     S
C73   C71    1.39262       .     S
C73   C74    1.39217       .     S
C74   C73    1.39217       .     S
C73   C80    1.50835       .     S
C80   C73    1.50835       .     S
C74   H75    0.95009   1_455     S
H75   C74    0.95009   1_655     S
C74   C76    1.39686   1_455     S
C76   C74    1.39686   1_655     S
C76   C77    1.38706   1_655     S
C77   C76    1.38706   1_455     S
C76   C79    1.49257       .     S
C79   C76    1.49257       .     S
C77   H78    0.94998   1_455     S
H78   C77    0.94998   1_655     S
O81   C161   1.28189       .     S
C161  O81    1.28189       .     S
O82   C161   1.23344       .     S
C161  O82    1.23344       .     S
O83   H95    0.88820       .     S
H95   O83    0.88820       .     S
O83   C160   1.25838       .     S
C160  O83    1.25838       .     S
O84   C160   1.28194       .     S
C160  O84    1.28194       .     S
O85   C139   1.26803       .     S
C139  O85    1.26803       .     S
O86   H96    0.89770       .     S
H96   O86    0.89770       .     S
O86   C139   1.26772       .     S
C139  O86    1.26772       .     S
O87   H98    0.89761       .     S
H98   O87    0.89761       .     S
O87   C140   1.28225       .     S
C140  O87    1.28225       .     S
O88   C140   1.24870       .     S
C140  O88    1.24870       .     S
O89   H94    0.89966       .     S
H94   O89    0.89966       .     S
O89   C109   1.26768       .     S
C109  O89    1.26768       .     S
O90   C109   1.26314       .     S
C109  O90    1.26314       .     S
O91   H97    0.89024       .     S
H97   O91    0.89024       .     S
O91   C99    1.29185       .     S
C99   O91    1.29185       .     S
O92   C99    1.23220       .     S
C99   O92    1.23220       .     S
N93   C114   1.41830       .     S
C114  N93    1.41830       .     S
N93   C120   1.41865       .     S
C120  N93    1.41865       .     S
N93   C141   1.42329       .     S
C141  N93    1.42329       .     S
C99   C100   1.50972       .     S
C100  C99    1.50972       .     S
C100  C101   1.38374       .     S
C101  C100   1.38374       .     S
C100  C107   1.39319       .     S
C107  C100   1.39319       .     S
C101  H102   0.95005       .     S
H102  C101   0.95005       .     S
C101  C103   1.39263       .     S
C103  C101   1.39263       .     S
C103  C104   1.39429       .     S
C104  C103   1.39429       .     S
C103  C109   1.48593       .     S
C109  C103   1.48593       .     S
C104  H105   0.95005       .     S
H105  C104   0.95005       .     S
C104  C106   1.39897       .     S
C106  C104   1.39897       .     S
C106  C107   1.40295       .     S
C107  C106   1.40295       .     S
C106  C119   1.47970   1_545     S
C119  C106   1.47970   1_565     S
C107  H108   0.94997       .     S
H108  C107   0.94997       .     S
C110  H111   0.95002       .     S
H111  C110   0.95002       .     S
C110  C112   1.38588       .     S
C112  C110   1.38588       .     S
C110  C119   1.40233       .     S
C119  C110   1.40233       .     S
C112  H113   0.94986       .     S
H113  C112   0.94986       .     S
C112  C114   1.40268       .     S
C114  C112   1.40268       .     S
C114  C115   1.38329       .     S
C115  C114   1.38329       .     S
C115  H116   0.95006       .     S
H116  C115   0.95006       .     S
C115  C117   1.39047       .     S
C117  C115   1.39047       .     S
C117  H118   0.94995   1_565     S
H118  C117   0.94995   1_545     S
C117  C119   1.39145       .     S
C119  C117   1.39145       .     S
C120  C121   1.39297       .     S
C121  C120   1.39297       .     S
C120  C128   1.40038       .     S
C128  C120   1.40038       .     S
C121  H122   0.95011       .     S
H122  C121   0.95011       .     S
C121  C123   1.38762       .     S
C123  C121   1.38762       .     S
C123  H124   0.94989       .     S
H124  C123   0.94989       .     S
C123  C125   1.39860       .     S
C125  C123   1.39860       .     S
C125  C126   1.39440       .     S
C126  C125   1.39440       .     S
C125  C130   1.47873       .     S
C130  C125   1.47873       .     S
C126  H127   0.95009       .     S
H127  C126   0.95009       .     S
C126  C128   1.38994       .     S
C128  C126   1.38994       .     S
C128  H129   0.95010       .     S
H129  C128   0.95010       .     S
C130  C131   1.39699       .     S
C131  C130   1.39699       .     S
C130  C137   1.39673       .     S
C137  C130   1.39673       .     S
C131  H132   0.94999       .     S
H132  C131   0.94999       .     S
C131  C133   1.39662       .     S
C133  C131   1.39662       .     S
C133  C134   1.39970       .     S
C134  C133   1.39970       .     S
C133  C140   1.48873       .     S
C140  C133   1.48873       .     S
C134  H135   0.95004       .     S
H135  C134   0.95004       .     S
C134  C136   1.39159       .     S
C136  C134   1.39159       .     S
C136  C137   1.40063       .     S
C137  C136   1.40063       .     S
C136  C139   1.49208       .     S
C139  C136   1.49208       .     S
C137  H138   0.95003       .     S
H138  C137   0.95003       .     S
C141  C142   1.39734       .     S
C142  C141   1.39734       .     S
C141  C149   1.39559       .     S
C149  C141   1.39559       .     S
C142  H143   0.95010       .     S
H143  C142   0.95010       .     S
C142  C144   1.39274       .     S
C144  C142   1.39274       .     S
C144  H145   0.94998       .     S
H145  C144   0.94998       .     S
C144  C146   1.39735       .     S
C146  C144   1.39735       .     S
C146  C147   1.39342       .     S
C147  C146   1.39342       .     S
C146  C151   1.48904       .     S
C151  C146   1.48904       .     S
C147  H148   0.94984       .     S
H148  C147   0.94984       .     S
C147  C149   1.38937       .     S
C149  C147   1.38937       .     S
C149  H150   0.95008       .     S
H150  C149   0.95008       .     S
C151  C152   1.40197       .     S
C152  C151   1.40197       .     S
C151  C158   1.39900       .     S
C158  C151   1.39900       .     S
C152  H153   0.94996       .     S
H153  C152   0.94996       .     S
C152  C154   1.39704       .     S
C154  C152   1.39704       .     S
C154  C155   1.38848       .     S
C155  C154   1.38848       .     S
C154  C160   1.48741       .     S
C160  C154   1.48741       .     S
C155  H156   0.95001       .     S
H156  C155   0.95001       .     S
C155  C157   1.39341       .     S
C157  C155   1.39341       .     S
C157  C158   1.39600       .     S
C158  C157   1.39600       .     S
C157  C161   1.50901       .     S
C161  C157   1.50901       .     S
C158  H159   0.94998       .     S
H159  C158   0.94998       .     S
N162  H163   0.90998       .     S
H163  N162   0.90998       .     S
N162  H164   0.90965       .     S
H164  N162   0.90965       .     S
N162  C165   1.45792   1_655     S
C165  N162   1.45792   1_455     S
N162  C169   1.45375       .     S
C169  N162   1.45375       .     S
C165  H166   0.97985       .     S
H166  C165   0.97985       .     S
C165  H167   0.98034       .     S
H167  C165   0.98034       .     S
C165  H168   0.98005       .     S
H168  C165   0.98005       .     S
C169  H170   0.97993       .     S
H170  C169   0.97993       .     S
C169  H171   0.98006       .     S
H171  C169   0.98006       .     S
C169  H172   0.98009   1_655     S
H172  C169   0.98008   1_455     S
N173  H174   0.90996       .     S
H174  N173   0.90996       .     S
N173  H175   0.91010       .     S
H175  N173   0.91010       .     S
N173  C176   1.47410       .     S
C176  N173   1.47410       .     S
N173  C180   1.46806   1_565     S
C180  N173   1.46806   1_545     S
C176  H177   0.98007       .     S
H177  C176   0.98007       .     S
C176  H178   0.97935       .     S
H178  C176   0.97935       .     S
C176  H179   0.98048       .     S
H179  C176   0.98048       .     S
C180  H181   0.97941       .     S
H181  C180   0.97941       .     S
C180  H182   0.98024       .     S
H182  C180   0.98024       .     S
C180  H183   0.97986       .     S
H183  C180   0.97986       .     S
O90   H15    1.71440       .     S
H15   O90    1.71440       .     S
O85   H16    1.72078   1_545     S
H16   O85    1.72078   1_565     S
O84   H17    1.72245   1_554     S
H17   O84    1.72245   1_556     S
O88   H18    1.74688       .     S
H18   O88    1.74688       .     S
O81   H28    1.56400   1_565     S
H28   O81    1.56400   1_545     S
O0    H94    1.69428       .     S
H94   O0     1.69428       .     S
O2    H95    1.69964       .     S
H95   O2     1.69964       .     S
O5    H96    1.71082       .     S
H96   O5     1.71082       .     S
O7    H97    1.58138       .     S
H97   O7     1.58138       .     S
O10   H98    1.73474       .     S
H98   O10    1.73474       .     S
O6    H163   1.89019   1_455     S
H163  O6     1.89019   1_655     S
O82   H175   1.90599   1_554     S
H175  O82    1.90599   1_556     S
C27   O0     1.28284       .     S
O0    C27    1.28284       .     S
H15   O1     0.90203       .     S
O1    H15    0.90203       .     S
C27   O1     1.24496       .     S
O1    C27    1.24496       .     S
C13   O2     1.28070   1_556     S
O2    C13    1.28070   1_554     S
C13   O3     1.24887       .     S
O3    C13    1.24887       .     S
H17   O3     0.90200       .     S
O3    H17    0.90200       .     S
H16   O4     0.89015       .     S
O4    H16    0.89015       .     S
C79   O4     1.26804       .     S
O4    C79    1.26804       .     S
C79   O5     1.26647   1_565     S
O5    C79    1.26647   1_545     S
C80   O6     1.23044       .     S
O6    C80    1.23044       .     S
C80   O7     1.28417       .     S
O7    C80    1.28417       .     S
C59   O8     1.23910       .     S
O8    C59    1.23910       .     S
H28   O9     0.89627       .     S
O9    H28    0.89627       .     S
C59   O9     1.27790       .     S
O9    C59    1.27790       .     S
C58   O10    1.25015       .     S
O10   C58    1.25015       .     S
H18   O11    0.86944       .     S
O11   H18    0.86944       .     S
C58   O11    1.28436       .     S
O11   C58    1.28436       .     S
C31   N12    1.42538       .     S
N12   C31    1.42538       .     S
C39   N12    1.42160       .     S
N12   C39    1.42160       .     S
C60   N12    1.42050       .     S
N12   C60    1.42050       .     S
C14   C13    1.49219   1_455     S
C13   C14    1.49219   1_655     S
C19   C14    1.39767       .     S
C14   C19    1.39767       .     S
C25   C14    1.40001   1_554     S
C14   C25    1.40001   1_556     S
H20   C19    0.95005       .     S
C19   H20    0.95005       .     S
C21   C19    1.40066       .     S
C19   C21    1.40066       .     S
C23   C21    1.40343       .     S
C21   C23    1.40343       .     S
C27   C21    1.48874       .     S
C21   C27    1.48874       .     S
C23   C22    1.39532       .     S
C22   C23    1.39532       .     S
C25   C22    1.40691   1_554     S
C22   C25    1.40691   1_556     S
C36   C22    1.48654   1_554     S
C22   C36    1.48654   1_556     S
H24   C23    0.95007       .     S
C23   H24    0.95007       .     S
H26   C25    0.95005       .     S
C25   H26    0.95005       .     S
H30   C29    0.95000       .     S
C29   H30    0.95000       .     S
C31   C29    1.39407       .     S
C29   C31    1.39407       .     S
C37   C29    1.38456       .     S
C29   C37    1.38456       .     S
C32   C31    1.39466       .     S
C31   C32    1.39466       .     S
H33   C32    0.95003       .     S
C32   H33    0.95003       .     S
C34   C32    1.38457   1_545     S
C32   C34    1.38457   1_565     S
H35   C34    0.95009   1_655     S
C34   H35    0.95009   1_455     S
C36   C34    1.38924       .     S
C34   C36    1.38924       .     S
C37   C36    1.39600   1_565     S
C36   C37    1.39600   1_545     S
H38   C37    0.95015   1_556     S
C37   H38    0.95015   1_554     S
C40   C39    1.39272       .     S
C39   C40    1.39272       .     S
C46   C39    1.39370       .     S
C39   C46    1.39370       .     S
H41   C40    0.95013       .     S
C40   H41    0.95013       .     S
C42   C40    1.37679       .     S
C40   C42    1.37679       .     S
H43   C42    0.94997       .     S
C42   H43    0.94997       .     S
C44   C42    1.39892       .     S
C42   C44    1.39892       .     S
C48   C44    1.47690       .     S
C44   C48    1.47690       .     S
C51   C44    1.38751   1_556     S
C44   C51    1.38751   1_554     S
C49   C45    1.39523       .     S
C45   C49    1.39523       .     S
C53   C45    1.39647   1_556     S
C45   C53    1.39647   1_554     S
C59   C45    1.50604       .     S
C45   C59    1.50604       .     S
H47   C46    0.94992       .     S
C46   H47    0.94992       .     S
C51   C46    1.38493   1_556     S
C46   C51    1.38493   1_554     S
C49   C48    1.40521       .     S
C48   C49    1.40521       .     S
C56   C48    1.40993   1_556     S
C48   C56    1.40993   1_554     S
H50   C49    0.94998       .     S
C49   H50    0.94998       .     S
H52   C51    0.94994       .     S
C51   H52    0.94994       .     S
H54   C53    0.95010       .     S
C53   H54    0.95010       .     S
C55   C53    1.39857       .     S
C53   C55    1.39857       .     S
C56   C55    1.39183       .     S
C55   C56    1.39183       .     S
C58   C55    1.48892       .     S
C55   C58    1.48892       .     S
H57   C56    0.95000       .     S
C56   H57    0.95000       .     S
C61   C60    1.40048       .     S
C60   C61    1.40048       .     S
C68   C60    1.39491       .     S
C60   C68    1.39491       .     S
H62   C61    0.95005       .     S
C61   H62    0.95005       .     S
C63   C61    1.37660       .     S
C61   C63    1.37660       .     S
H64   C63    0.94985       .     S
C63   H64    0.94985       .     S
C65   C63    1.39539       .     S
C63   C65    1.39539       .     S
C66   C65    1.39582       .     S
C65   C66    1.39582       .     S
C70   C65    1.47946       .     S
C65   C70    1.47946       .     S
H67   C66    0.95000       .     S
C66   H67    0.95000       .     S
C68   C66    1.38459       .     S
C66   C68    1.38459       .     S
H69   C68    0.94995       .     S
C68   H69    0.94995       .     S
C71   C70    1.39983       .     S
C70   C71    1.39983       .     S
C77   C70    1.40864       .     S
C70   C77    1.40864       .     S
H72   C71    0.94998       .     S
C71   H72    0.94998       .     S
C73   C71    1.39262       .     S
C71   C73    1.39262       .     S
C74   C73    1.39217       .     S
C73   C74    1.39217       .     S
C80   C73    1.50835       .     S
C73   C80    1.50835       .     S
H75   C74    0.95009   1_655     S
C74   H75    0.95009   1_455     S
C76   C74    1.39686   1_655     S
C74   C76    1.39686   1_455     S
C77   C76    1.38706   1_455     S
C76   C77    1.38706   1_655     S
C79   C76    1.49257       .     S
C76   C79    1.49257       .     S
H78   C77    0.94998   1_655     S
C77   H78    0.94998   1_455     S
C161  O81    1.28189       .     S
O81   C161   1.28189       .     S
C161  O82    1.23344       .     S
O82   C161   1.23344       .     S
H95   O83    0.88820       .     S
O83   H95    0.88820       .     S
C160  O83    1.25838       .     S
O83   C160   1.25838       .     S
C160  O84    1.28194       .     S
O84   C160   1.28194       .     S
C139  O85    1.26803       .     S
O85   C139   1.26803       .     S
H96   O86    0.89770       .     S
O86   H96    0.89770       .     S
C139  O86    1.26772       .     S
O86   C139   1.26772       .     S
H98   O87    0.89761       .     S
O87   H98    0.89761       .     S
C140  O87    1.28225       .     S
O87   C140   1.28225       .     S
C140  O88    1.24870       .     S
O88   C140   1.24870       .     S
H94   O89    0.89966       .     S
O89   H94    0.89966       .     S
C109  O89    1.26768       .     S
O89   C109   1.26768       .     S
C109  O90    1.26314       .     S
O90   C109   1.26314       .     S
H97   O91    0.89024       .     S
O91   H97    0.89024       .     S
C99   O91    1.29185       .     S
O91   C99    1.29185       .     S
C99   O92    1.23220       .     S
O92   C99    1.23220       .     S
C114  N93    1.41830       .     S
N93   C114   1.41830       .     S
C120  N93    1.41865       .     S
N93   C120   1.41865       .     S
C141  N93    1.42329       .     S
N93   C141   1.42329       .     S
C100  C99    1.50972       .     S
C99   C100   1.50972       .     S
C101  C100   1.38374       .     S
C100  C101   1.38374       .     S
C107  C100   1.39319       .     S
C100  C107   1.39319       .     S
H102  C101   0.95005       .     S
C101  H102   0.95005       .     S
C103  C101   1.39263       .     S
C101  C103   1.39263       .     S
C104  C103   1.39429       .     S
C103  C104   1.39429       .     S
C109  C103   1.48593       .     S
C103  C109   1.48593       .     S
H105  C104   0.95005       .     S
C104  H105   0.95005       .     S
C106  C104   1.39897       .     S
C104  C106   1.39897       .     S
C107  C106   1.40295       .     S
C106  C107   1.40295       .     S
C119  C106   1.47970   1_565     S
C106  C119   1.47970   1_545     S
H108  C107   0.94997       .     S
C107  H108   0.94997       .     S
H111  C110   0.95002       .     S
C110  H111   0.95002       .     S
C112  C110   1.38588       .     S
C110  C112   1.38588       .     S
C119  C110   1.40233       .     S
C110  C119   1.40233       .     S
H113  C112   0.94986       .     S
C112  H113   0.94986       .     S
C114  C112   1.40268       .     S
C112  C114   1.40268       .     S
C115  C114   1.38329       .     S
C114  C115   1.38329       .     S
H116  C115   0.95006       .     S
C115  H116   0.95006       .     S
C117  C115   1.39047       .     S
C115  C117   1.39047       .     S
H118  C117   0.94995   1_545     S
C117  H118   0.94995   1_565     S
C119  C117   1.39145       .     S
C117  C119   1.39145       .     S
C121  C120   1.39297       .     S
C120  C121   1.39297       .     S
C128  C120   1.40038       .     S
C120  C128   1.40038       .     S
H122  C121   0.95011       .     S
C121  H122   0.95011       .     S
C123  C121   1.38762       .     S
C121  C123   1.38762       .     S
H124  C123   0.94989       .     S
C123  H124   0.94989       .     S
C125  C123   1.39860       .     S
C123  C125   1.39860       .     S
C126  C125   1.39440       .     S
C125  C126   1.39440       .     S
C130  C125   1.47873       .     S
C125  C130   1.47873       .     S
H127  C126   0.95009       .     S
C126  H127   0.95009       .     S
C128  C126   1.38994       .     S
C126  C128   1.38994       .     S
H129  C128   0.95010       .     S
C128  H129   0.95010       .     S
C131  C130   1.39699       .     S
C130  C131   1.39699       .     S
C137  C130   1.39673       .     S
C130  C137   1.39673       .     S
H132  C131   0.94999       .     S
C131  H132   0.94999       .     S
C133  C131   1.39662       .     S
C131  C133   1.39662       .     S
C134  C133   1.39970       .     S
C133  C134   1.39970       .     S
C140  C133   1.48873       .     S
C133  C140   1.48873       .     S
H135  C134   0.95004       .     S
C134  H135   0.95004       .     S
C136  C134   1.39159       .     S
C134  C136   1.39159       .     S
C137  C136   1.40063       .     S
C136  C137   1.40063       .     S
C139  C136   1.49208       .     S
C136  C139   1.49208       .     S
H138  C137   0.95003       .     S
C137  H138   0.95003       .     S
C142  C141   1.39734       .     S
C141  C142   1.39734       .     S
C149  C141   1.39559       .     S
C141  C149   1.39559       .     S
H143  C142   0.95010       .     S
C142  H143   0.95010       .     S
C144  C142   1.39274       .     S
C142  C144   1.39274       .     S
H145  C144   0.94998       .     S
C144  H145   0.94998       .     S
C146  C144   1.39735       .     S
C144  C146   1.39735       .     S
C147  C146   1.39342       .     S
C146  C147   1.39342       .     S
C151  C146   1.48904       .     S
C146  C151   1.48904       .     S
H148  C147   0.94984       .     S
C147  H148   0.94984       .     S
C149  C147   1.38937       .     S
C147  C149   1.38937       .     S
H150  C149   0.95008       .     S
C149  H150   0.95008       .     S
C152  C151   1.40197       .     S
C151  C152   1.40197       .     S
C158  C151   1.39900       .     S
C151  C158   1.39900       .     S
H153  C152   0.94996       .     S
C152  H153   0.94996       .     S
C154  C152   1.39704       .     S
C152  C154   1.39704       .     S
C155  C154   1.38848       .     S
C154  C155   1.38848       .     S
C160  C154   1.48741       .     S
C154  C160   1.48741       .     S
H156  C155   0.95001       .     S
C155  H156   0.95001       .     S
C157  C155   1.39341       .     S
C155  C157   1.39341       .     S
C158  C157   1.39600       .     S
C157  C158   1.39600       .     S
C161  C157   1.50901       .     S
C157  C161   1.50901       .     S
H159  C158   0.94998       .     S
C158  H159   0.94998       .     S
H163  N162   0.90998       .     S
N162  H163   0.90998       .     S
H164  N162   0.90965       .     S
N162  H164   0.90965       .     S
C165  N162   1.45792   1_455     S
N162  C165   1.45792   1_655     S
C169  N162   1.45375       .     S
N162  C169   1.45375       .     S
H166  C165   0.97985       .     S
C165  H166   0.97985       .     S
H167  C165   0.98034       .     S
C165  H167   0.98034       .     S
H168  C165   0.98005       .     S
C165  H168   0.98005       .     S
H170  C169   0.97993       .     S
C169  H170   0.97993       .     S
H171  C169   0.98006       .     S
C169  H171   0.98006       .     S
H172  C169   0.98008   1_455     S
C169  H172   0.98009   1_655     S
H174  N173   0.90996       .     S
N173  H174   0.90996       .     S
H175  N173   0.91010       .     S
N173  H175   0.91010       .     S
C176  N173   1.47410       .     S
N173  C176   1.47410       .     S
C180  N173   1.46806   1_545     S
N173  C180   1.46806   1_565     S
H177  C176   0.98007       .     S
C176  H177   0.98007       .     S
H178  C176   0.97935       .     S
C176  H178   0.97935       .     S
H179  C176   0.98048       .     S
C176  H179   0.98048       .     S
H181  C180   0.97941       .     S
C180  H181   0.97941       .     S
H182  C180   0.98024       .     S
C180  H182   0.98024       .     S
H183  C180   0.97986       .     S
C180  H183   0.97986       .     S
