data_I
_chemical_name_common  '/data/user2/wty/HOF/MOFDiff/mofdiff/data/test/293-1_s5'
_cell_length_a 16.61130
_cell_length_b 20.66020
_cell_length_c 23.19600
_cell_angle_alpha 90.00000
_cell_angle_beta  90.00000
_cell_angle_gamma 90.00000
_space_group_name_H-M_alt      'P 1'


loop_
_space_group_symop_operation_xyz
  'x, y, z' 

loop_
_atom_site_label
_atom_site_fract_x
_atom_site_fract_y
_atom_site_fract_z
_atom_site_type_symbol
H0     0.79622  0.41538  0.48329     H
C1      0.5512  0.64056  0.18487     C
C2     0.53291  0.62092   0.2453     C
C3     0.45572    0.628  0.26772     C
H4      0.4135  0.64372  0.24391     H
C5     0.44035  0.61214  0.32473     C
H6     0.38763  0.61812   0.3397     H
C7     0.50043  0.58759  0.36073     C
C8     0.57689   0.5786  0.33683     C
H9     0.61843   0.5602  0.35972     H
C10    0.59318  0.59614  0.28014     C
H11    0.64606  0.59109   0.2652     H
C12    0.48122  0.57286  0.42478     C
C13    0.39396  0.54709  0.42764     C
C14    0.33578  0.57329  0.46398     C
H15    0.34838  0.61041  0.48641     H
C16    0.25988   0.5461  0.46792     C
H17    0.22094  0.56501  0.49275     H
C18    0.23977  0.49121  0.43587     C
C19     0.2967   0.4662  0.39761     C
H20    0.28371  0.42965  0.37457     H
C21      0.372  0.49444  0.39309     C
H22    0.40952  0.47774    0.366     H
C23    0.15948  0.46082  0.44258     C
C24    0.53918  0.52212  0.45068     C
C25    0.61965  0.53941  0.46108     C
H26    0.63743  0.58169  0.45122     H
C27    0.67361  0.49632  0.48534     C
H28    0.72813  0.50876  0.49086     H
C29    0.64826  0.43471  0.50173     C
C30    0.70511  0.38685   0.5261     C
C31    0.56772  0.41761  0.49418     C
H32     0.5494  0.37622  0.50625     H
C33     0.5143  0.46084  0.46913     C
H34    0.45958  0.44856  0.46439     H
C35    0.48995  0.63503  0.46185     C
C36     0.5014  0.62815  0.52126     C
H37    0.50442  0.58598  0.53744     H
C38    0.50842  0.68148  0.55695     C
H39    0.51724  0.67553  0.59707     H
C40    0.50264  0.74376  0.53454     C
C41    0.49121  0.75118  0.47535     C
H42    0.48713   0.7934  0.45939     H
C43    0.48571  0.69735  0.43937     C
H44    0.47899  0.70329  0.39904     H
C45    0.50815  0.80005  0.57421     C
N46    0.61713  0.67375  0.17503     N
H47    0.62885  0.68627  0.13976     H
H48    0.64962  0.68348  0.20371     H
N49    0.50093   0.6249  0.14354     N
H50    0.51092   0.6367   0.1078     H
H51     0.4572   0.6026  0.15156     H
N52     0.1419  0.40688  0.41518     N
H53    0.09382  0.38949   0.4189     H
H54    0.17823  0.38819  0.39315     H
N55    0.10429  0.48772  0.47516     N
H56    0.05651  0.46969  0.47839     H
H57    0.11504  0.52381  0.49379     H
N58    0.77984  0.38674   0.5088     N
H59    0.81387  0.35804  0.52265     H
N60    0.67922  0.34474  0.56404     N
H61    0.71243   0.3157  0.57834     H
H62    0.62861   0.3455  0.57524     H
N63    0.52787  0.85717  0.55444     N
H64    0.53179  0.89025  0.57817     H
H65    0.53722  0.86253   0.5174     H
N66    0.49426  0.79218  0.62935     N
H67     0.4982   0.8253  0.65304     H
H68    0.48099  0.75377  0.64271     H
O69      0.856  0.48269  0.44273     O
C70    0.33625  0.49755  0.19087     C
C71    0.43768  0.42375  0.15215     C
H72    0.47602  0.46105  0.15142     H
C73    0.48213  0.36358  0.17501     C
H74     0.4438  0.32698   0.1773     H
H75    0.52509  0.35151  0.14744     H
C76    0.51904  0.37442  0.23359     C
C77    0.58861   0.4119   0.2387     C
H78    0.61259  0.43017  0.20527     H
C79     0.6228  0.42252  0.29228     C
H80    0.67007  0.44812   0.2953     H
C81     0.5892   0.3966  0.34107     C
H82    0.61347  0.40356  0.37761     H
C83     0.5194     0.36  0.33666     C
H84    0.49523   0.3427  0.37042     H
C85     0.4845  0.34853  0.28287     C
H86    0.43712  0.32298  0.28004     H
C87    0.40855  0.41046  0.09044     C
C88    0.26328  0.50511  0.22805     C
C89    0.22389  0.45176  0.25098     C
H90    0.24679  0.40992   0.2465     H
C91    0.15183  0.45851  0.28027     C
H92    0.12519  0.42134  0.29501     H
C93    0.11848  0.51913  0.28815     C
C94      0.039  0.52811  0.31773     C
C95    0.91159  0.48313  0.34902     C
H96     0.8943  0.52946  0.34737     H
C97    0.84891  0.44212  0.31669     C
H98    0.86953   0.3973  0.31359     H
H99    0.79906  0.44065  0.34006     H
C100   0.82758  0.46583  0.25677     C
C101    0.8236  0.42158  0.21196     C
H102   0.83947  0.37795  0.21819     H
C103    0.7963    0.441  0.15761     C
H104   0.79341  0.41043  0.12707     H
C105    0.7737   0.5041  0.14827     C
H106   0.75348  0.51696   0.1117     H
C107    0.7804   0.5488  0.19215     C
H108    0.7669  0.59278  0.18529     H
C109    0.8068  0.52987   0.2461     C
H110   0.81078  0.56094  0.27616     H
C111   0.91267  0.46169  0.41291     C
C112   0.15915  0.57334  0.26744     C
H113   0.13785  0.61532  0.27428     H
C114   0.23051  0.56656   0.2369     C
H115   0.25705  0.60371  0.22202     H
N116   0.37108   0.4394  0.19072     N
H117   0.35335  0.40955  0.21462     H
N118   0.99004  0.47758  0.32095     N
H119   0.00494  0.44029  0.30603     H
O120   0.36115  0.54363  0.16086     O
O121   0.46312  0.41108  0.05265     O
O122   0.33653  0.39852  0.08097     O
O123    0.0208   0.5818  0.33765     O
O124   0.96651  0.42364  0.43051     O
O125   0.30416  0.24631  0.41513     O
H126   0.28037  0.27453  0.39466     H
H127   0.31438  0.26571  0.44659     H
O128   0.35546  0.34219  0.48695     O
H129   0.37534  0.36474  0.45865     H
H130   0.39667  0.32197  0.50146     H
O131    0.3593   0.7193    0.021     O
H132   0.34446   0.7031    0.053     H
H133   0.40758  0.73256  0.02386     H
O134   0.01867  0.34215  0.29626     O
H135   0.04925  0.31644  0.31459     H
H136   0.02753  0.33377  0.26094     H
O137   0.21992  0.31642  0.33737     O
H138   0.18222  0.28966  0.33043     H
H139   0.24719  0.31745  0.30632     H
O140   0.26549  0.63019  0.08107     O
H141   0.30062  0.61618  0.10462     H
H142   0.26904  0.60943  0.04956     H
O143    0.5824   0.5042  0.05844     O
H144   0.54423  0.47801  0.06558     H
H145   0.60508  0.48882   0.0286     H
O146    0.1228  0.21397  0.29698     O
H147   0.16508  0.20276  0.27892     H
H148   0.08571  0.19072  0.28256     H
C149   0.27096  0.25789  0.21254     C
C150   0.23526  0.25964  0.15142     C
H151   0.18841  0.22927  0.15031     H
C152   0.13521  0.34488  0.15473     C
C153   0.10926  0.41268  0.14121     C
C154   0.15559   0.4556  0.10961     C
H155   0.20493  0.44173  0.09299     H
C156   0.12977  0.51898  0.10225     C
H157    0.1617   0.5485  0.08073     H
C158   0.05725  0.53949  0.12626     C
C159   0.02947  0.60858  0.12557     C
C160   0.06082  0.72232  0.12627     C
H161    0.0323  0.72678  0.16403     H
C162   0.13521  0.76588  0.12748     C
H163   0.16833   0.7567  0.09295     H
H164    0.1176  0.81158  0.12517     H
C165    0.1872  0.75742  0.18089     C
C166    0.1538  0.74848  0.23522     C
H167   0.09696  0.74589  0.23915     H
C168    0.2024  0.74322   0.2842     C
H169   0.17864  0.73655  0.32097     H
C170    0.2848  0.74773   0.2791     C
H171   0.31822  0.74382  0.31212     H
C172    0.3183   0.7579   0.2257     C
H173   0.37502   0.7623  0.22221     H
C174    0.2703  0.76198  0.17632     C
H175   0.29454  0.76786  0.13961     H
C176   0.00382  0.74564  0.07834     C
C177    0.0085  0.49561   0.1551     C
H178    0.9574  0.50867  0.16935     H
C179   0.03488  0.43265  0.16297     C
H180   0.00207  0.40275  0.18337     H
C181   0.29852  0.23522  0.10821     C
H182   0.34095  0.26852   0.1039     H
H183   0.32412  0.19569  0.12391     H
C184   0.26385  0.22009   0.0496     C
C185    0.2756  0.26256  0.00342     C
H186   0.30529  0.30136  0.00905     H
C187     0.244   0.2483  0.94909     C
H188   0.25168  0.27746  0.91789     H
C189    0.2012   0.1912  0.94095     C
H190   0.17969  0.18132  0.90403     H
C191    0.1899   0.1489   0.9859     C
H192   0.16117  0.10967  0.97988     H
C193    0.2204   0.1633  0.04059     C
H194   0.21148  0.13429  0.07172     H
N195   0.20639  0.32408  0.13539     N
H196   0.23586  0.34907  0.11306     H
N197   0.08523  0.65475  0.11956     N
H198   0.13553  0.64469  0.11172     H
O199   0.29889  0.30948  0.23337     O
O200   0.26985  0.20372  0.23694     O
O201   0.09013  0.30896  0.18341     O
O202   0.95789   0.6227  0.13311     O
O203   0.01505  0.72508   0.0279     O
O204    0.9515  0.78608  0.09275     O
O205   0.55606  0.65767  0.02908     O
H206   0.53971  0.69389  0.01625     H
H207   0.52484  0.63002  0.01367     H
loop_
_geom_bond_atom_site_label_1
_geom_bond_atom_site_label_2
_geom_bond_distance
_geom_bond_site_symmetry_2
_ccdc_geom_bond_type
H0    O69    1.95067       .     S
O69   H0     1.95067       .     S
H50   O205   2.02094       .     S
O205  H50    2.02094       .     S
H51   O120   2.01904       .     S
O120  H51    2.01904       .     S
H53   O124   2.24558   1_455     S
O124  H53    2.24558   1_655     S
H54   O137   2.08623       .     S
O137  H54    2.08623       .     S
H56   O124   2.09135   1_455     S
O124  H56    2.09135   1_655     S
H117  O199   2.29825       .     S
O199  H117   2.29825       .     S
H119  O134   2.05293       .     S
O134  H119   2.05293       .     S
H126  O137   1.87705       .     S
O137  H126   1.87705       .     S
H127  O128   1.95929       .     S
O128  H127   1.95929       .     S
H132  O140   2.10090       .     S
O140  H132   2.10090       .     S
H135  O146   2.47820       .     S
O146  H135   2.47820       .     S
H136  O201   2.13969       .     S
O201  H136   2.13969       .     S
H138  O146   2.00541       .     S
O146  H138   2.00541       .     S
H139  O199   1.90474       .     S
O199  H139   1.90474       .     S
H141  O120   2.22700       .     S
O120  H141   2.22700       .     S
H144  O121   1.95381       .     S
O121  H144   1.95381       .     S
H147  O200   1.99436       .     S
O200  H147   1.99436       .     S
H196  O122   2.09625       .     S
O122  H196   2.09625       .     S
H198  O140   2.29252       .     S
O140  H198   2.29252       .     S
H0    N58    0.87994       .     S
N58   H0     0.87994       .     S
C1    C2     1.49057       .     S
C2    C1     1.49057       .     S
C1    N46    1.31215       .     S
N46   C1     1.31215       .     S
C1    N49    1.31190       .     S
N49   C1     1.31190       .     S
C2    C3     1.39139       .     S
C3    C2     1.39139       .     S
C2    C10    1.38475       .     S
C10   C2     1.38475       .     S
C3    H4     0.94993       .     S
H4    C3     0.94993       .     S
C3    C5     1.38611       .     S
C5    C3     1.38611       .     S
C5    H6     0.95015       .     S
H6    C5     0.95015       .     S
C5    C7     1.39664       .     S
C7    C5     1.39664       .     S
C7    C8     1.39821       .     S
C8    C7     1.39821       .     S
C7    C12    1.54976       .     S
C12   C7     1.54976       .     S
C8    H9     0.95004       .     S
H9    C8     0.95004       .     S
C8    C10    1.39058       .     S
C10   C8     1.39058       .     S
C10   H11    0.95004       .     S
H11   C10    0.95004       .     S
C12   C13    1.54561       .     S
C13   C12    1.54561       .     S
C12   C24    1.54494       .     S
C24   C12    1.54494       .     S
C12   C35    1.55249       .     S
C35   C12    1.55249       .     S
C13   C14    1.39197       .     S
C14   C13    1.39197       .     S
C13   C21    1.39949       .     S
C21   C13    1.39949       .     S
C14   H15    0.95008       .     S
H15   C14    0.95008       .     S
C14   C16    1.38330       .     S
C16   C14    1.38330       .     S
C16   H17    0.95014       .     S
H17   C16    0.95014       .     S
C16   C18    1.39654       .     S
C18   C16    1.39654       .     S
C18   C19    1.39604       .     S
C19   C18    1.39604       .     S
C18   C23    1.48231       .     S
C23   C18    1.48231       .     S
C19   H20    0.94995       .     S
H20   C19    0.94995       .     S
C19   C21    1.38419       .     S
C21   C19    1.38419       .     S
C21   H22    0.94992       .     S
H22   C21    0.94992       .     S
C23   N52    1.31573       .     S
N52   C23    1.31573       .     S
C23   N55    1.31167       .     S
N55   C23    1.31167       .     S
C24   C25    1.40449       .     S
C25   C24    1.40449       .     S
C24   C33    1.39888       .     S
C33   C24    1.39888       .     S
C25   H26    0.95003       .     S
H26   C25    0.95003       .     S
C25   C27    1.38298       .     S
C27   C25    1.38298       .     S
C27   H28    0.95008       .     S
H28   C27    0.95008       .     S
C27   C29    1.39358       .     S
C29   C27    1.39358       .     S
C29   C30    1.47955       .     S
C30   C29    1.47955       .     S
C29   C31    1.39477       .     S
C31   C29    1.39477       .     S
C30   N58    1.30461       .     S
N58   C30    1.30461       .     S
C30   N60    1.31010       .     S
N60   C30    1.31010       .     S
C31   H32    0.94986       .     S
H32   C31    0.94986       .     S
C31   C33    1.38664       .     S
C33   C31    1.38664       .     S
C33   H34    0.95010       .     S
H34   C33    0.95010       .     S
C35   C36    1.39838       .     S
C36   C35    1.39838       .     S
C35   C43    1.39091       .     S
C43   C35    1.39091       .     S
C36   H37    0.94996       .     S
H37   C36    0.94996       .     S
C36   C38    1.38309       .     S
C38   C36    1.38309       .     S
C38   H39    0.95007       .     S
H39   C38    0.95007       .     S
C38   C40    1.39107       .     S
C40   C38    1.39107       .     S
C40   C41    1.39449       .     S
C41   C40    1.39449       .     S
C40   C45    1.48580       .     S
C45   C40    1.48580       .     S
C41   H42    0.95000       .     S
H42   C41    0.95000       .     S
C41   C43    1.39346       .     S
C43   C41    1.39346       .     S
C43   H44    0.95009       .     S
H44   C43    0.95009       .     S
C45   N63    1.30777       .     S
N63   C45    1.30777       .     S
C45   N66    1.30980       .     S
N66   C45    1.30980       .     S
N46   H47    0.87985       .     S
H47   N46    0.87985       .     S
N46   H48    0.87992       .     S
H48   N46    0.87992       .     S
N49   H50    0.87992       .     S
H50   N49    0.87992       .     S
N49   H51    0.88008       .     S
H51   N49    0.88008       .     S
N52   H53    0.88000       .     S
H53   N52    0.88000       .     S
N52   H54    0.88002       .     S
H54   N52    0.88002       .     S
N55   H56    0.87995       .     S
H56   N55    0.87995       .     S
N55   H57    0.88011       .     S
H57   N55    0.88011       .     S
N58   H59    0.87997       .     S
H59   N58    0.87997       .     S
N60   H61    0.87996       .     S
H61   N60    0.87996       .     S
N60   H62    0.88006       .     S
H62   N60    0.88006       .     S
N63   H64    0.87995       .     S
H64   N63    0.87995       .     S
N63   H65    0.88010       .     S
H65   N63    0.88010       .     S
N66   H67    0.88004       .     S
H67   N66    0.88004       .     S
N66   H68    0.87998       .     S
H68   N66    0.87998       .     S
O69   C111   1.24614       .     S
C111  O69    1.24614       .     S
C70   C88    1.49580       .     S
C88   C70    1.49580       .     S
C70   N116   1.33345       .     S
N116  C70    1.33345       .     S
C70   O120   1.24980       .     S
O120  C70    1.24980       .     S
C71   H72    0.99988       .     S
H72   C71    0.99988       .     S
C71   C73    1.54004       .     S
C73   C71    1.54004       .     S
C71   C87    1.53575       .     S
C87   C71    1.53575       .     S
C71   N116   1.45908       .     S
N116  C71    1.45908       .     S
C73   H74    0.98995       .     S
H74   C73    0.98995       .     S
C73   H75    0.99016       .     S
H75   C73    0.99016       .     S
C73   C76    1.50747       .     S
C76   C73    1.50747       .     S
C76   C77    1.39613       .     S
C77   C76    1.39613       .     S
C76   C85    1.38635       .     S
C85   C76    1.38635       .     S
C77   H78    0.94998       .     S
H78   C77    0.94998       .     S
C77   C79    1.38396       .     S
C79   C77    1.38396       .     S
C79   H80    0.94932       .     S
H80   C79    0.94932       .     S
C79   C81    1.37081       .     S
C81   C79    1.37081       .     S
C81   H82    0.94953       .     S
H82   C81    0.94953       .     S
C81   C83    1.38803       .     S
C83   C81    1.38803       .     S
C83   H84    0.94984       .     S
H84   C83    0.94984       .     S
C83   C85    1.39608       .     S
C85   C83    1.39608       .     S
C85   H86    0.94994       .     S
H86   C85    0.94994       .     S
C87   O121   1.26105       .     S
O121  C87    1.26105       .     S
C87   O122   1.24111       .     S
O122  C87    1.24111       .     S
C88   C89    1.38778       .     S
C89   C88    1.38778       .     S
C88   C114   1.39652       .     S
C114  C88    1.39652       .     S
C89   H90    0.95012       .     S
H90   C89    0.95012       .     S
C89   C91    1.38343       .     S
C91   C89    1.38343       .     S
C91   H92    0.94998       .     S
H92   C91    0.94998       .     S
C91   C93    1.38162       .     S
C93   C91    1.38162       .     S
C93   C94    1.49944       .     S
C94   C93    1.49944       .     S
C93   C112   1.39340       .     S
C112  C93    1.39340       .     S
C94   N118   1.32547   1_455     S
N118  C94    1.32547   1_655     S
C94   O123   1.23908       .     S
O123  C94    1.23908       .     S
C95   H96    1.00008       .     S
H96   C95    1.00008       .     S
C95   C97    1.53765       .     S
C97   C95    1.53765       .     S
C95   C111   1.54688       .     S
C111  C95    1.54688       .     S
C95   N118   1.46127       .     S
N118  C95    1.46127       .     S
C97   H98    0.98993       .     S
H98   C97    0.98993       .     S
C97   H99    0.99020       .     S
H99   C97    0.99020       .     S
C97   C100   1.51569       .     S
C100  C97    1.51569       .     S
C100  C101   1.38583       .     S
C101  C100   1.38583       .     S
C100  C109   1.38958       .     S
C109  C100   1.38958       .     S
C101  H102   0.95022       .     S
H102  C101   0.95022       .     S
C101  C103   1.39857       .     S
C103  C101   1.39857       .     S
C103  H104   0.95028       .     S
H104  C103   0.95028       .     S
C103  C105   1.37383       .     S
C105  C103   1.37383       .     S
C105  H106   0.95025       .     S
H106  C105   0.95025       .     S
C105  C107   1.37886       .     S
C107  C105   1.37886       .     S
C107  H108   0.94933       .     S
H108  C107   0.94933       .     S
C107  C109   1.38251       .     S
C109  C107   1.38251       .     S
C109  H110   0.95006       .     S
H110  C109   0.95006       .     S
C111  O124   1.25878       .     S
O124  C111   1.25878       .     S
C112  H113   0.95005       .     S
H113  C112   0.95005       .     S
C112  C114   1.38802       .     S
C114  C112   1.38802       .     S
C114  H115   0.95005       .     S
H115  C114   0.95005       .     S
N116  H117   0.88001       .     S
H117  N116   0.88001       .     S
N118  H119   0.88010   1_655     S
H119  N118   0.88010   1_455     S
O125  H126   0.84944       .     S
H126  O125   0.84944       .     S
O125  H127   0.84970       .     S
H127  O125   0.84970       .     S
O128  H129   0.87007       .     S
H129  O128   0.87007       .     S
O128  H130   0.86972       .     S
H130  O128   0.86972       .     S
O131  H132   0.85074       .     S
H132  O131   0.85074       .     S
O131  H133   0.85009       .     S
H133  O131   0.85009       .     S
O134  H135   0.84910       .     S
H135  O134   0.84910       .     S
O134  H136   0.85021       .     S
H136  O134   0.85021       .     S
O137  H138   0.85074       .     S
H138  O137   0.85074       .     S
O137  H139   0.85111       .     S
H139  O137   0.85111       .     S
O140  H141   0.85013       .     S
H141  O140   0.85013       .     S
O140  H142   0.84951       .     S
H142  O140   0.84951       .     S
O143  H144   0.84984       .     S
H144  O143   0.84984       .     S
O143  H145   0.84971       .     S
H145  O143   0.84971       .     S
O146  H147   0.84994       .     S
H147  O146   0.84994       .     S
O146  H148   0.84983       .     S
H148  O146   0.84983       .     S
C149  C150   1.53720       .     S
C150  C149   1.53720       .     S
C149  O199   1.25888       .     S
O199  C149   1.25888       .     S
C149  O200   1.25427       .     S
O200  C149   1.25427       .     S
C150  H151   1.00001       .     S
H151  C150   1.00001       .     S
C150  C181   1.53733       .     S
C181  C150   1.53733       .     S
C150  N195   1.46312       .     S
N195  C150   1.46312       .     S
C152  C153   1.49877       .     S
C153  C152   1.49877       .     S
C152  N195   1.33565       .     S
N195  C152   1.33565       .     S
C152  O201   1.24662       .     S
O201  C152   1.24662       .     S
C153  C154   1.38415       .     S
C154  C153   1.38415       .     S
C153  C179   1.39699       .     S
C179  C153   1.39699       .     S
C154  H155   0.94999       .     S
H155  C154   0.94999       .     S
C154  C156   1.38843       .     S
C156  C154   1.38843       .     S
C156  H157   0.94998       .     S
H157  C156   0.94998       .     S
C156  C158   1.39317       .     S
C158  C156   1.39317       .     S
C158  C159   1.50024       .     S
C159  C158   1.50024       .     S
C158  C177   1.38751       .     S
C177  C158   1.38751       .     S
C159  N197   1.33688       .     S
N197  C159   1.33688       .     S
C159  O202   1.23673   1_455     S
O202  C159   1.23673   1_655     S
C160  H161   1.00005       .     S
H161  C160   1.00005       .     S
C160  C162   1.52895       .     S
C162  C160   1.52895       .     S
C160  C176   1.53776       .     S
C176  C160   1.53776       .     S
C160  N197   1.46201       .     S
N197  C160   1.46201       .     S
C162  H163   0.99004       .     S
H163  C162   0.99004       .     S
C162  H164   0.98990       .     S
H164  C162   0.98990       .     S
C162  C165   1.52028       .     S
C165  C162   1.52028       .     S
C165  C166   1.38929       .     S
C166  C165   1.38929       .     S
C165  C174   1.38767       .     S
C174  C165   1.38767       .     S
C166  H167   0.95008       .     S
H167  C166   0.95008       .     S
C166  C168   1.39799       .     S
C168  C166   1.39799       .     S
C168  H169   0.94986       .     S
H169  C168   0.94986       .     S
C168  C170   1.37703       .     S
C170  C168   1.37703       .     S
C170  H171   0.94940       .     S
H171  C170   0.94940       .     S
C170  C172   1.37409       .     S
C172  C170   1.37409       .     S
C172  H173   0.95002       .     S
H173  C172   0.95002       .     S
C172  C174   1.39816       .     S
C174  C172   1.39816       .     S
C174  H175   0.94973       .     S
H175  C174   0.94973       .     S
C176  O203   1.25863       .     S
O203  C176   1.25863       .     S
C176  O204   1.25105   1_455     S
O204  C176   1.25105   1_655     S
C177  H178   0.95005   1_455     S
H178  C177   0.95005   1_655     S
C177  C179   1.38468       .     S
C179  C177   1.38468       .     S
C179  H180   0.95003       .     S
H180  C179   0.95003       .     S
C181  H182   0.98999       .     S
H182  C181   0.98999       .     S
C181  H183   0.99018       .     S
H183  C181   0.99018       .     S
C181  C184   1.50920       .     S
C184  C181   1.50920       .     S
C184  C185   1.39837       .     S
C185  C184   1.39837       .     S
C184  C193   1.39328       .     S
C193  C184   1.39328       .     S
C185  H186   0.95020       .     S
H186  C185   0.95020       .     S
C185  C187   1.39662   1_554     S
C187  C185   1.39662   1_556     S
C187  H188   0.95026       .     S
H188  C187   0.95026       .     S
C187  C189   1.39025       .     S
C189  C187   1.39025       .     S
C189  H190   0.95013       .     S
H190  C189   0.95013       .     S
C189  C191   1.37336       .     S
C191  C189   1.37336       .     S
C191  H192   0.95088       .     S
H192  C191   0.95088       .     S
C191  C193   1.39804   1_556     S
C193  C191   1.39804   1_554     S
C193  H194   0.95005       .     S
H194  C193   0.95005       .     S
N195  H196   0.88006       .     S
H196  N195   0.88006       .     S
N197  H198   0.88001       .     S
H198  N197   0.88001       .     S
O205  H206   0.84988       .     S
H206  O205   0.84988       .     S
O205  H207   0.85033       .     S
H207  O205   0.85033       .     S
O69   H0     1.95067       .     S
H0    O69    1.95067       .     S
O205  H50    2.02094       .     S
H50   O205   2.02094       .     S
O120  H51    2.01904       .     S
H51   O120   2.01904       .     S
O124  H53    2.24558   1_655     S
H53   O124   2.24558   1_455     S
O137  H54    2.08623       .     S
H54   O137   2.08623       .     S
O124  H56    2.09135   1_655     S
H56   O124   2.09135   1_455     S
O199  H117   2.29825       .     S
H117  O199   2.29825       .     S
O134  H119   2.05293       .     S
H119  O134   2.05293       .     S
O137  H126   1.87705       .     S
H126  O137   1.87705       .     S
O128  H127   1.95929       .     S
H127  O128   1.95929       .     S
O140  H132   2.10090       .     S
H132  O140   2.10090       .     S
O146  H135   2.47820       .     S
H135  O146   2.47820       .     S
O201  H136   2.13969       .     S
H136  O201   2.13969       .     S
O146  H138   2.00541       .     S
H138  O146   2.00541       .     S
O199  H139   1.90474       .     S
H139  O199   1.90474       .     S
O120  H141   2.22700       .     S
H141  O120   2.22700       .     S
O121  H144   1.95381       .     S
H144  O121   1.95381       .     S
O200  H147   1.99436       .     S
H147  O200   1.99436       .     S
O122  H196   2.09625       .     S
H196  O122   2.09625       .     S
O140  H198   2.29252       .     S
H198  O140   2.29252       .     S
N58   H0     0.87994       .     S
H0    N58    0.87994       .     S
C2    C1     1.49057       .     S
C1    C2     1.49057       .     S
N46   C1     1.31215       .     S
C1    N46    1.31215       .     S
N49   C1     1.31190       .     S
C1    N49    1.31190       .     S
C3    C2     1.39139       .     S
C2    C3     1.39139       .     S
C10   C2     1.38475       .     S
C2    C10    1.38475       .     S
H4    C3     0.94993       .     S
C3    H4     0.94993       .     S
C5    C3     1.38611       .     S
C3    C5     1.38611       .     S
H6    C5     0.95015       .     S
C5    H6     0.95015       .     S
C7    C5     1.39664       .     S
C5    C7     1.39664       .     S
C8    C7     1.39821       .     S
C7    C8     1.39821       .     S
C12   C7     1.54976       .     S
C7    C12    1.54976       .     S
H9    C8     0.95004       .     S
C8    H9     0.95004       .     S
C10   C8     1.39058       .     S
C8    C10    1.39058       .     S
H11   C10    0.95004       .     S
C10   H11    0.95004       .     S
C13   C12    1.54561       .     S
C12   C13    1.54561       .     S
C24   C12    1.54494       .     S
C12   C24    1.54494       .     S
C35   C12    1.55249       .     S
C12   C35    1.55249       .     S
C14   C13    1.39197       .     S
C13   C14    1.39197       .     S
C21   C13    1.39949       .     S
C13   C21    1.39949       .     S
H15   C14    0.95008       .     S
C14   H15    0.95008       .     S
C16   C14    1.38330       .     S
C14   C16    1.38330       .     S
H17   C16    0.95014       .     S
C16   H17    0.95014       .     S
C18   C16    1.39654       .     S
C16   C18    1.39654       .     S
C19   C18    1.39604       .     S
C18   C19    1.39604       .     S
C23   C18    1.48231       .     S
C18   C23    1.48231       .     S
H20   C19    0.94995       .     S
C19   H20    0.94995       .     S
C21   C19    1.38419       .     S
C19   C21    1.38419       .     S
H22   C21    0.94992       .     S
C21   H22    0.94992       .     S
N52   C23    1.31573       .     S
C23   N52    1.31573       .     S
N55   C23    1.31167       .     S
C23   N55    1.31167       .     S
C25   C24    1.40449       .     S
C24   C25    1.40449       .     S
C33   C24    1.39888       .     S
C24   C33    1.39888       .     S
H26   C25    0.95003       .     S
C25   H26    0.95003       .     S
C27   C25    1.38298       .     S
C25   C27    1.38298       .     S
H28   C27    0.95008       .     S
C27   H28    0.95008       .     S
C29   C27    1.39358       .     S
C27   C29    1.39358       .     S
C30   C29    1.47955       .     S
C29   C30    1.47955       .     S
C31   C29    1.39477       .     S
C29   C31    1.39477       .     S
N58   C30    1.30461       .     S
C30   N58    1.30461       .     S
N60   C30    1.31010       .     S
C30   N60    1.31010       .     S
H32   C31    0.94986       .     S
C31   H32    0.94986       .     S
C33   C31    1.38664       .     S
C31   C33    1.38664       .     S
H34   C33    0.95010       .     S
C33   H34    0.95010       .     S
C36   C35    1.39838       .     S
C35   C36    1.39838       .     S
C43   C35    1.39091       .     S
C35   C43    1.39091       .     S
H37   C36    0.94996       .     S
C36   H37    0.94996       .     S
C38   C36    1.38309       .     S
C36   C38    1.38309       .     S
H39   C38    0.95007       .     S
C38   H39    0.95007       .     S
C40   C38    1.39107       .     S
C38   C40    1.39107       .     S
C41   C40    1.39449       .     S
C40   C41    1.39449       .     S
C45   C40    1.48580       .     S
C40   C45    1.48580       .     S
H42   C41    0.95000       .     S
C41   H42    0.95000       .     S
C43   C41    1.39346       .     S
C41   C43    1.39346       .     S
H44   C43    0.95009       .     S
C43   H44    0.95009       .     S
N63   C45    1.30777       .     S
C45   N63    1.30777       .     S
N66   C45    1.30980       .     S
C45   N66    1.30980       .     S
H47   N46    0.87985       .     S
N46   H47    0.87985       .     S
H48   N46    0.87992       .     S
N46   H48    0.87992       .     S
H50   N49    0.87992       .     S
N49   H50    0.87992       .     S
H51   N49    0.88008       .     S
N49   H51    0.88008       .     S
H53   N52    0.88000       .     S
N52   H53    0.88000       .     S
H54   N52    0.88002       .     S
N52   H54    0.88002       .     S
H56   N55    0.87995       .     S
N55   H56    0.87995       .     S
H57   N55    0.88011       .     S
N55   H57    0.88011       .     S
H59   N58    0.87997       .     S
N58   H59    0.87997       .     S
H61   N60    0.87996       .     S
N60   H61    0.87996       .     S
H62   N60    0.88006       .     S
N60   H62    0.88006       .     S
H64   N63    0.87995       .     S
N63   H64    0.87995       .     S
H65   N63    0.88010       .     S
N63   H65    0.88010       .     S
H67   N66    0.88004       .     S
N66   H67    0.88004       .     S
H68   N66    0.87998       .     S
N66   H68    0.87998       .     S
C111  O69    1.24614       .     S
O69   C111   1.24614       .     S
C88   C70    1.49580       .     S
C70   C88    1.49580       .     S
N116  C70    1.33345       .     S
C70   N116   1.33345       .     S
O120  C70    1.24980       .     S
C70   O120   1.24980       .     S
H72   C71    0.99988       .     S
C71   H72    0.99988       .     S
C73   C71    1.54004       .     S
C71   C73    1.54004       .     S
C87   C71    1.53575       .     S
C71   C87    1.53575       .     S
N116  C71    1.45908       .     S
C71   N116   1.45908       .     S
H74   C73    0.98995       .     S
C73   H74    0.98995       .     S
H75   C73    0.99016       .     S
C73   H75    0.99016       .     S
C76   C73    1.50747       .     S
C73   C76    1.50747       .     S
C77   C76    1.39613       .     S
C76   C77    1.39613       .     S
C85   C76    1.38635       .     S
C76   C85    1.38635       .     S
H78   C77    0.94998       .     S
C77   H78    0.94998       .     S
C79   C77    1.38396       .     S
C77   C79    1.38396       .     S
H80   C79    0.94932       .     S
C79   H80    0.94932       .     S
C81   C79    1.37081       .     S
C79   C81    1.37081       .     S
H82   C81    0.94953       .     S
C81   H82    0.94953       .     S
C83   C81    1.38803       .     S
C81   C83    1.38803       .     S
H84   C83    0.94984       .     S
C83   H84    0.94984       .     S
C85   C83    1.39608       .     S
C83   C85    1.39608       .     S
H86   C85    0.94994       .     S
C85   H86    0.94994       .     S
O121  C87    1.26105       .     S
C87   O121   1.26105       .     S
O122  C87    1.24111       .     S
C87   O122   1.24111       .     S
C89   C88    1.38778       .     S
C88   C89    1.38778       .     S
C114  C88    1.39652       .     S
C88   C114   1.39652       .     S
H90   C89    0.95012       .     S
C89   H90    0.95012       .     S
C91   C89    1.38343       .     S
C89   C91    1.38343       .     S
H92   C91    0.94998       .     S
C91   H92    0.94998       .     S
C93   C91    1.38162       .     S
C91   C93    1.38162       .     S
C94   C93    1.49944       .     S
C93   C94    1.49944       .     S
C112  C93    1.39340       .     S
C93   C112   1.39340       .     S
N118  C94    1.32547   1_655     S
C94   N118   1.32547   1_455     S
O123  C94    1.23908       .     S
C94   O123   1.23908       .     S
H96   C95    1.00008       .     S
C95   H96    1.00008       .     S
C97   C95    1.53765       .     S
C95   C97    1.53765       .     S
C111  C95    1.54688       .     S
C95   C111   1.54688       .     S
N118  C95    1.46127       .     S
C95   N118   1.46127       .     S
H98   C97    0.98993       .     S
C97   H98    0.98993       .     S
H99   C97    0.99020       .     S
C97   H99    0.99020       .     S
C100  C97    1.51569       .     S
C97   C100   1.51569       .     S
C101  C100   1.38583       .     S
C100  C101   1.38583       .     S
C109  C100   1.38958       .     S
C100  C109   1.38958       .     S
H102  C101   0.95022       .     S
C101  H102   0.95022       .     S
C103  C101   1.39857       .     S
C101  C103   1.39857       .     S
H104  C103   0.95028       .     S
C103  H104   0.95028       .     S
C105  C103   1.37383       .     S
C103  C105   1.37383       .     S
H106  C105   0.95025       .     S
C105  H106   0.95025       .     S
C107  C105   1.37886       .     S
C105  C107   1.37886       .     S
H108  C107   0.94933       .     S
C107  H108   0.94933       .     S
C109  C107   1.38251       .     S
C107  C109   1.38251       .     S
H110  C109   0.95006       .     S
C109  H110   0.95006       .     S
O124  C111   1.25878       .     S
C111  O124   1.25878       .     S
H113  C112   0.95005       .     S
C112  H113   0.95005       .     S
C114  C112   1.38802       .     S
C112  C114   1.38802       .     S
H115  C114   0.95005       .     S
C114  H115   0.95005       .     S
H117  N116   0.88001       .     S
N116  H117   0.88001       .     S
H119  N118   0.88010   1_455     S
N118  H119   0.88010   1_655     S
H126  O125   0.84944       .     S
O125  H126   0.84944       .     S
H127  O125   0.84970       .     S
O125  H127   0.84970       .     S
H129  O128   0.87007       .     S
O128  H129   0.87007       .     S
H130  O128   0.86972       .     S
O128  H130   0.86972       .     S
H132  O131   0.85074       .     S
O131  H132   0.85074       .     S
H133  O131   0.85009       .     S
O131  H133   0.85009       .     S
H135  O134   0.84910       .     S
O134  H135   0.84910       .     S
H136  O134   0.85021       .     S
O134  H136   0.85021       .     S
H138  O137   0.85074       .     S
O137  H138   0.85074       .     S
H139  O137   0.85111       .     S
O137  H139   0.85111       .     S
H141  O140   0.85013       .     S
O140  H141   0.85013       .     S
H142  O140   0.84951       .     S
O140  H142   0.84951       .     S
H144  O143   0.84984       .     S
O143  H144   0.84984       .     S
H145  O143   0.84971       .     S
O143  H145   0.84971       .     S
H147  O146   0.84994       .     S
O146  H147   0.84994       .     S
H148  O146   0.84983       .     S
O146  H148   0.84983       .     S
C150  C149   1.53720       .     S
C149  C150   1.53720       .     S
O199  C149   1.25888       .     S
C149  O199   1.25888       .     S
O200  C149   1.25427       .     S
C149  O200   1.25427       .     S
H151  C150   1.00001       .     S
C150  H151   1.00001       .     S
C181  C150   1.53733       .     S
C150  C181   1.53733       .     S
N195  C150   1.46312       .     S
C150  N195   1.46312       .     S
C153  C152   1.49877       .     S
C152  C153   1.49877       .     S
N195  C152   1.33565       .     S
C152  N195   1.33565       .     S
O201  C152   1.24662       .     S
C152  O201   1.24662       .     S
C154  C153   1.38415       .     S
C153  C154   1.38415       .     S
C179  C153   1.39699       .     S
C153  C179   1.39699       .     S
H155  C154   0.94999       .     S
C154  H155   0.94999       .     S
C156  C154   1.38843       .     S
C154  C156   1.38843       .     S
H157  C156   0.94998       .     S
C156  H157   0.94998       .     S
C158  C156   1.39317       .     S
C156  C158   1.39317       .     S
C159  C158   1.50024       .     S
C158  C159   1.50024       .     S
C177  C158   1.38751       .     S
C158  C177   1.38751       .     S
N197  C159   1.33688       .     S
C159  N197   1.33688       .     S
O202  C159   1.23673   1_655     S
C159  O202   1.23673   1_455     S
H161  C160   1.00005       .     S
C160  H161   1.00005       .     S
C162  C160   1.52895       .     S
C160  C162   1.52895       .     S
C176  C160   1.53776       .     S
C160  C176   1.53776       .     S
N197  C160   1.46201       .     S
C160  N197   1.46201       .     S
H163  C162   0.99004       .     S
C162  H163   0.99004       .     S
H164  C162   0.98990       .     S
C162  H164   0.98990       .     S
C165  C162   1.52028       .     S
C162  C165   1.52028       .     S
C166  C165   1.38929       .     S
C165  C166   1.38929       .     S
C174  C165   1.38767       .     S
C165  C174   1.38767       .     S
H167  C166   0.95008       .     S
C166  H167   0.95008       .     S
C168  C166   1.39799       .     S
C166  C168   1.39799       .     S
H169  C168   0.94986       .     S
C168  H169   0.94986       .     S
C170  C168   1.37703       .     S
C168  C170   1.37703       .     S
H171  C170   0.94940       .     S
C170  H171   0.94940       .     S
C172  C170   1.37409       .     S
C170  C172   1.37409       .     S
H173  C172   0.95002       .     S
C172  H173   0.95002       .     S
C174  C172   1.39816       .     S
C172  C174   1.39816       .     S
H175  C174   0.94973       .     S
C174  H175   0.94973       .     S
O203  C176   1.25863       .     S
C176  O203   1.25863       .     S
O204  C176   1.25105   1_655     S
C176  O204   1.25105   1_455     S
H178  C177   0.95005   1_655     S
C177  H178   0.95005   1_455     S
C179  C177   1.38468       .     S
C177  C179   1.38468       .     S
H180  C179   0.95003       .     S
C179  H180   0.95003       .     S
H182  C181   0.98999       .     S
C181  H182   0.98999       .     S
H183  C181   0.99018       .     S
C181  H183   0.99018       .     S
C184  C181   1.50920       .     S
C181  C184   1.50920       .     S
C185  C184   1.39837       .     S
C184  C185   1.39837       .     S
C193  C184   1.39328       .     S
C184  C193   1.39328       .     S
H186  C185   0.95020       .     S
C185  H186   0.95020       .     S
C187  C185   1.39662   1_556     S
C185  C187   1.39662   1_554     S
H188  C187   0.95026       .     S
C187  H188   0.95026       .     S
C189  C187   1.39025       .     S
C187  C189   1.39025       .     S
H190  C189   0.95013       .     S
C189  H190   0.95013       .     S
C191  C189   1.37336       .     S
C189  C191   1.37336       .     S
H192  C191   0.95088       .     S
C191  H192   0.95088       .     S
C193  C191   1.39804   1_554     S
C191  C193   1.39804   1_556     S
H194  C193   0.95005       .     S
C193  H194   0.95005       .     S
H196  N195   0.88006       .     S
N195  H196   0.88006       .     S
H198  N197   0.88001       .     S
N197  H198   0.88001       .     S
H206  O205   0.84988       .     S
O205  H206   0.84988       .     S
H207  O205   0.85033       .     S
O205  H207   0.85033       .     S
