data_I
_chemical_name_common  '/data/user2/wty/HOF/MOFDiff/mofdiff/data/test/293-1biphenyldicarboxylate'
_cell_length_a 12.74100
_cell_length_b 16.11220
_cell_length_c 17.34490
_cell_angle_alpha 116.19900
_cell_angle_beta  91.12700
_cell_angle_gamma 103.19300
_space_group_name_H-M_alt      'P 1'


loop_
_space_group_symop_operation_xyz
  'x, y, z' 

loop_
_atom_site_label
_atom_site_fract_x
_atom_site_fract_y
_atom_site_fract_z
_atom_site_type_symbol
O0      0.9568   0.1138   0.6231     O
O1     0.92082  0.95581  0.57739     O
C2      0.8944   0.0313   0.5895     C
C3      0.7771   0.0211  0.56255     C
C4      0.6946   0.9437    0.555     C
C5      0.5873   0.9356   0.5315     C
C6      0.5578   0.0047  0.51377     C
C7       0.641   0.0832   0.5236     C
C8      0.7489   0.0915   0.5475     C
H9       0.712   0.8976   0.5676     H
H10     0.5343    0.883    0.529     H
H11     0.6263   0.1317   0.5142     H
H12     0.8052   0.1456   0.5544     H
O13    0.07918  0.04419  0.42261     O
O14     0.0432   0.8862   0.3769     O
C15     0.1056   0.9687   0.4105     C
C16     0.2229   0.9789  0.43745     C
C17     0.3054   0.0563    0.445     C
C18     0.4127   0.0644   0.4685     C
C19     0.4422   0.9953  0.48623     C
C20      0.359   0.9168   0.4764     C
C21     0.2511   0.9085   0.4525     C
H22      0.288   0.1024   0.4324     H
H23     0.4657    0.117    0.471     H
H24     0.3737   0.8683   0.4858     H
H25     0.1948   0.8544   0.4456     H
O26      0.938   0.7505   0.9106     O
H27      0.874    0.754    0.906     H
H28      0.976    0.782     0.89     H
O29     0.5683  0.70579   0.7964     O
O30     0.7284   0.7658  0.88116     O
C31     0.6313   0.7123  0.85527     C
C32     0.5924    0.652   0.9016     C
C33     0.6604   0.6494   0.9623     C
C34     0.6249   0.5914   0.0017     C
C35     0.5182   0.5325  0.98022     C
C36     0.4491   0.5397   0.9216     C
C37     0.4842   0.5976   0.8819     C
H38     0.7313   0.6862   0.9751     H
H39     0.6733   0.5906    0.042     H
H40     0.3755   0.5035   0.9069     H
H41     0.4344   0.6006   0.8422     H
O42     0.4317  0.29421   0.2036     O
O43     0.2716   0.2342  0.11884     O
C44     0.3687   0.2877  0.14473     C
C45     0.4076    0.348   0.0984     C
C46     0.3396   0.3506   0.0377     C
C47     0.3751   0.4086   0.9983     C
C48     0.4818   0.4675  0.01978     C
C49     0.5509   0.4603   0.0784     C
C50     0.5158   0.4024   0.1181     C
H51     0.2687   0.3138   0.0249     H
H52     0.3267   0.4094    0.958     H
H53     0.6245   0.4965   0.0931     H
H54     0.5656   0.3994   0.1578     H
O55     0.2852   0.3239   0.7806     O
S56    0.35446  0.34911  0.72066     S
C57     0.2879   0.2682   0.6143     C
C58     0.4698   0.3048   0.7193     C
H59     0.3283   0.2809   0.5734     H
H60     0.2826   0.2043    0.604     H
H61      0.217    0.276   0.6082     H
H62     0.5163   0.3189   0.6821     H
H63     0.5082    0.334   0.7763     H
H64     0.4464   0.2374   0.6985     H
H65      0.088   0.1272    0.682     H
N66     0.8154   0.4669   0.7132     N
N67     0.8856   0.5506   0.8575     N
C68     0.8255   0.4724   0.7906     C
C69     0.7719   0.3898   0.8059     C
C70     0.7475   0.4053   0.8887     C
C71     0.7046   0.3285   0.9054     C
C72     0.6851   0.2347  0.84094     C
C73     0.7043   0.2199   0.7572     C
C74     0.7477   0.2956   0.7395     C
N75     0.5996   0.2402  0.26404     N
N76     0.7596   0.1936  0.24168     N
C77     0.6758   0.2139   0.2155     C
C78     0.6641   0.2027  0.12592     C
C79     0.7537   0.2345   0.0913     C
C80     0.7414   0.2193  0.00619     C
C81     0.6412   0.1722  0.95332     C
C82      0.553   0.1394  0.98811     C
C83     0.5639   0.1555  0.07386     C
N84     0.8279  0.77028  0.74204     N
N85     0.9006   0.8298   0.6513     N
C86     0.8428   0.8347   0.7139     C
C87     0.7909   0.9156  0.75289     C
C88     0.6867   0.9008   0.7765     C
C89     0.6374    0.975   0.8082     C
C90     0.6891  0.06602   0.8168     C
C91     0.7948   0.0806  0.79679     C
C92     0.8449   0.0062  0.76424     C
C93     0.6324  0.14791  0.85624     C
N94     0.1516   0.1353   0.7079     N
N95     0.1353   0.9751   0.6376     N
C96     0.1907   0.0617   0.6918     C
C97     0.3004    0.079   0.7358     C
C98     0.3416   0.1593   0.8157     C
C99      0.446   0.1781   0.8536     C
C100     0.513    0.118  0.81405     C
C101     0.472   0.0388   0.7347     C
C102    0.3668   0.0186   0.6962     C
H103    0.6507   0.8404   0.7702     H
H104    0.5669   0.9651   0.8233     H
H105    0.4746   0.2341   0.9065     H
H106    0.2972   0.2004   0.8435     H
H107      0.34   0.9654   0.6429     H
H108    0.5147   0.9983   0.7065     H
H109    0.6895   0.1575   0.7125     H
H110    0.7609   0.2852   0.6853     H
H111    0.7605   0.4681   0.9337     H
H112    0.6898   0.3401     0.96     H
H113    0.4841   0.1054   0.9534     H
H114    0.5029   0.1324   0.0945     H
H115    0.8224    0.266   0.1247     H
H116    0.8026   0.2413   0.9826     H
H117    0.8314   0.1408   0.8022     H
H118     0.916   0.0161   0.7497     H
H119     0.769    0.202   0.2948     H
H120      0.55    0.259   0.2461     H
H121     0.902    0.869    0.629     H
H122     0.796     0.78    0.788     H
H123     0.857    0.724     0.72     H
H124     0.159   0.9267    0.629     H
H125     0.602    0.242   0.3148     H
H126     0.936    0.786    0.632     H
H127     0.899    0.551   0.9079     H
H128     0.808    0.176   0.2075     H
H129     0.077   0.9684    0.608     H
H130     0.776   0.4155   0.6695     H
H131      0.91   0.6031   0.8526     H
H132     0.193   0.1934    0.739     H
H133     0.857     0.51   0.7022     H
O134    0.8118   0.1992  0.40471     O
H135     0.858     0.23    0.451     H
H136     0.765    0.226    0.429     H
O137    0.9437  0.62197  0.68806     O
O138    0.6145   0.2397  0.42461     O
O139    0.6833  0.32039    0.564     O
C140    0.6164   0.3027   0.5013     C
C141    0.5295   0.3568   0.5185     C
C142    0.4413   0.3278   0.4555     C
C143     0.359   0.3748   0.4738     C
C144    0.3622   0.4507   0.5547     C
C145    0.4526    0.482   0.6165     C
C146    0.5353   0.4354   0.5987     C
O147    0.9985  0.68143  0.59674     O
C148    0.0049   0.6312   0.6346     C
C149    0.0951   0.5803   0.6138     C
C150    0.1393   0.5553   0.6717     C
C151    0.2279   0.5155   0.6541     C
C152    0.2702   0.4964   0.5753     C
C153    0.2219   0.5175   0.5168     C
C154    0.1375   0.5615   0.5363     C
H155    0.5964   0.4557   0.6415     H
H156    0.4573   0.5352   0.6729     H
H157    0.2487   0.5026   0.4622     H
H158    0.1105   0.5779   0.4957     H
H159    0.1088   0.5639    0.723     H
H160    0.2591   0.5013    0.695     H
H161    0.2995   0.3547   0.4303     H
H162    0.4385   0.2768   0.4014     H
O163    0.9106    0.119   0.1248     O
S164   0.88132  0.01812  0.05016     S
C165    0.7336   0.9819   0.0257     C
C166     0.895   0.9436   0.0919     C
H167    0.7112   0.9188    0.979     H
H168    0.7026    0.983   0.0754     H
H169      0.71   0.0247   0.0097     H
H170    0.8772   0.8795   0.0469     H
H171    0.9683   0.9613   0.1175     H
H172    0.8481   0.9483   0.1347     H
loop_
_geom_bond_atom_site_label_1
_geom_bond_atom_site_label_2
_geom_bond_distance
_geom_bond_site_symmetry_2
_ccdc_geom_bond_type
H27   O30    1.96596       .     S
O30   H27    1.96596       .     S
H65   O0     1.85956   1_455     S
O0    H65    1.85955   1_655     S
H119  O134   1.99498       .     S
O134  H119   1.99498       .     S
H120  O42    1.96289       .     S
O42   H120   1.96289       .     S
H121  O1     1.94322       .     S
O1    H121   1.94322       .     S
H122  O30    1.92260       .     S
O30   H122   1.92260       .     S
H123  O137   2.06845       .     S
O137  H123   2.06845       .     S
H125  O138   1.92548       .     S
O138  H125   1.92548       .     S
H126  O147   1.88908       .     S
O147  H126   1.88908       .     S
H128  O163   2.01703       .     S
O163  H128   2.01703       .     S
H129  O1     1.99042   1_455     S
O1    H129   1.99042   1_655     S
H130  O139   1.92473       .     S
O139  H130   1.92473       .     S
H131  O26    2.06620       .     S
O26   H131   2.06620       .     S
H132  O55    1.95481       .     S
O55   H132   1.95481       .     S
H133  O137   2.00668       .     S
O137  H133   2.00668       .     S
H136  O138   1.98336       .     S
O138  H136   1.98336       .     S
H136  O139   2.55998       .     S
O139  H136   2.55998       .     S
O0    C2     1.24660       .     S
C2    O0     1.24660       .     S
O1    C2     1.26528   1_565     S
C2    O1     1.26528   1_545     S
C2    C3     1.50721       .     S
C3    C2     1.50721       .     S
C3    C4     1.38898   1_545     S
C4    C3     1.38898   1_565     S
C3    C8     1.38840       .     S
C8    C3     1.38840       .     S
C4    C5     1.37907       .     S
C5    C4     1.37907       .     S
C4    H9     0.93017       .     S
H9    C4     0.93017       .     S
C5    C6     1.40149   1_565     S
C6    C5     1.40149   1_545     S
C5    H10    0.93878       .     S
H10   C5     0.93878       .     S
C6    C7     1.39391       .     S
C7    C6     1.39391       .     S
C6    C19    1.49233   1_545     S
C19   C6     1.49233   1_565     S
C7    C8     1.38722       .     S
C8    C7     1.38722       .     S
C7    H11    0.92218       .     S
H11   C7     0.92218       .     S
C8    H12    0.95277       .     S
H12   C8     0.95277       .     S
O13   C15    1.26528   1_545     S
C15   O13    1.26528   1_565     S
O14   C15    1.24660       .     S
C15   O14    1.24660       .     S
C15   C16    1.50721       .     S
C16   C15    1.50721       .     S
C16   C17    1.38898   1_565     S
C17   C16    1.38898   1_545     S
C16   C21    1.38840       .     S
C21   C16    1.38840       .     S
C17   C18    1.37907       .     S
C18   C17    1.37907       .     S
C17   H22    0.93017       .     S
H22   C17    0.93017       .     S
C18   C19    1.40149   1_545     S
C19   C18    1.40149   1_565     S
C18   H23    0.93878       .     S
H23   C18    0.93878       .     S
C19   C20    1.39391       .     S
C20   C19    1.39391       .     S
C20   C21    1.38722       .     S
C21   C20    1.38722       .     S
C20   H24    0.92218       .     S
H24   C20    0.92218       .     S
C21   H25    0.95277       .     S
H25   C21    0.95277       .     S
O26   H27    0.83479       .     S
H27   O26    0.83479       .     S
O26   H28    0.82124       .     S
H28   O26    0.82124       .     S
O29   C31    1.23802       .     S
C31   O29    1.23802       .     S
O30   C31    1.27468       .     S
C31   O30    1.27468       .     S
C31   C32    1.52334       .     S
C32   C31    1.52334       .     S
C32   C33    1.37130       .     S
C33   C32    1.37130       .     S
C32   C37    1.39676       .     S
C37   C32    1.39676       .     S
C33   C34    1.38853   1_556     S
C34   C33    1.38853   1_554     S
C33   H38    0.92101       .     S
H38   C33    0.92101       .     S
C34   C35    1.40234   1_554     S
C35   C34    1.40234   1_556     S
C34   H39    0.92934       .     S
H39   C34    0.92934       .     S
C35   C36    1.39209       .     S
C36   C35    1.39209       .     S
C35   C48    1.48596   1_556     S
C48   C35    1.48596   1_554     S
C36   C37    1.39045       .     S
C37   C36    1.39045       .     S
C36   H40    0.94561       .     S
H40   C36    0.94561       .     S
C37   H41    0.95147       .     S
H41   C37    0.95147       .     S
O42   C44    1.23802       .     S
C44   O42    1.23802       .     S
O43   C44    1.27468       .     S
C44   O43    1.27468       .     S
C44   C45    1.52335       .     S
C45   C44    1.52335       .     S
C45   C46    1.37130       .     S
C46   C45    1.37130       .     S
C45   C50    1.39676       .     S
C50   C45    1.39676       .     S
C46   C47    1.38853   1_554     S
C47   C46    1.38853   1_556     S
C46   H51    0.92101       .     S
H51   C46    0.92101       .     S
C47   C48    1.40234   1_556     S
C48   C47    1.40234   1_554     S
C47   H52    0.92934       .     S
H52   C47    0.92934       .     S
C48   C49    1.39209       .     S
C49   C48    1.39209       .     S
C49   C50    1.39045       .     S
C50   C49    1.39045       .     S
C49   H53    0.94561       .     S
H53   C49    0.94561       .     S
C50   H54    0.95147       .     S
H54   C50    0.95147       .     S
O55   S56    1.50663       .     S
S56   O55    1.50663       .     S
S56   C57    1.76981       .     S
C57   S56    1.76981       .     S
S56   C58    1.77066       .     S
C58   S56    1.77066       .     S
C57   H59    0.95107       .     S
H59   C57    0.95107       .     S
C57   H60    0.94967       .     S
H60   C57    0.94967       .     S
C57   H61    0.95016       .     S
H61   C57    0.95016       .     S
C58   H62    0.94972       .     S
H62   C58    0.94972       .     S
C58   H63    0.95045       .     S
H63   C58    0.95045       .     S
C58   H64    0.94889       .     S
H64   C58    0.94889       .     S
H65   N94    0.87242       .     S
N94   H65    0.87242       .     S
N66   C68    1.30754       .     S
C68   N66    1.30754       .     S
N66   H130   0.86797       .     S
H130  N66    0.86797       .     S
N66   H133   0.86748       .     S
H133  N66    0.86748       .     S
N67   C68    1.32440       .     S
C68   N67    1.32440       .     S
N67   H127   0.88433       .     S
H127  N67    0.88433       .     S
N67   H131   0.87400       .     S
H131  N67    0.87400       .     S
C68   C69    1.48732       .     S
C69   C68    1.48732       .     S
C69   C70    1.39924       .     S
C70   C69    1.39924       .     S
C69   C74    1.39788       .     S
C74   C69    1.39788       .     S
C70   C71    1.38847       .     S
C71   C70    1.38847       .     S
C70   H111   0.93891       .     S
H111  C70    0.93891       .     S
C71   C72    1.38620       .     S
C72   C71    1.38620       .     S
C71   H112   0.91334       .     S
H112  C71    0.91334       .     S
C72   C73    1.40040       .     S
C73   C72    1.40040       .     S
C72   C93    1.54364       .     S
C93   C72    1.54364       .     S
C73   C74    1.38460       .     S
C74   C73    1.38460       .     S
C73   H109   0.93109       .     S
H109  C73    0.93109       .     S
C74   H110   0.90561       .     S
H110  C74    0.90561       .     S
N75   C77    1.31754       .     S
C77   N75    1.31754       .     S
N75   H120   0.86649       .     S
H120  N75    0.86649       .     S
N75   H125   0.86771       .     S
H125  N75    0.86771       .     S
N76   C77    1.31325       .     S
C77   N76    1.31325       .     S
N76   H119   0.87162       .     S
H119  N76    0.87162       .     S
N76   H128   0.87059       .     S
H128  N76    0.87059       .     S
C77   C78    1.48323       .     S
C78   C77    1.48323       .     S
C78   C79    1.39928       .     S
C79   C78    1.39928       .     S
C78   C83    1.38877       .     S
C83   C78    1.38877       .     S
C79   C80    1.38489       .     S
C80   C79    1.38489       .     S
C79   H115   0.93649       .     S
H115  C79    0.93649       .     S
C80   C81    1.39424   1_554     S
C81   C80    1.39424   1_556     S
C80   H116   0.95683   1_554     S
H116  C80    0.95683   1_556     S
C81   C82    1.39406       .     S
C82   C81    1.39406       .     S
C81   C93    1.54652       .     S
C93   C81    1.54652       .     S
C82   C83    1.39049   1_556     S
C83   C82    1.39049   1_554     S
C82   H113   0.94956       .     S
H113  C82    0.94956       .     S
C83   H114   0.93128       .     S
H114  C83    0.93128       .     S
N84   C86    1.30867       .     S
C86   N84    1.30867       .     S
N84   H122   0.86992       .     S
H122  N84    0.86992       .     S
N84   H123   0.84835       .     S
H123  N84    0.84835       .     S
N85   C86    1.30760       .     S
C86   N85    1.30760       .     S
N85   H121   0.87160       .     S
H121  N85    0.87160       .     S
N85   H126   0.86957       .     S
H126  N85    0.86957       .     S
C86   C87    1.49209       .     S
C87   C86    1.49209       .     S
C87   C88    1.39650       .     S
C88   C87    1.39650       .     S
C87   C92    1.38763   1_565     S
C92   C87    1.38763   1_545     S
C88   C89    1.37916       .     S
C89   C88    1.37916       .     S
C88   H103   0.93262       .     S
H103  C88    0.93262       .     S
C89   C90    1.40317   1_565     S
C90   C89    1.40317   1_545     S
C89   H104   0.93894       .     S
H104  C89    0.93894       .     S
C90   C91    1.39114       .     S
C91   C90    1.39114       .     S
C90   C93    1.54541       .     S
C93   C90    1.54541       .     S
C91   C92    1.38891       .     S
C92   C91    1.38891       .     S
C91   H117   0.93729       .     S
H117  C91    0.93729       .     S
C92   H118   0.94246       .     S
H118  C92    0.94246       .     S
C93   C100   1.54667       .     S
C100  C93    1.54667       .     S
N94   C96    1.30964       .     S
C96   N94    1.30964       .     S
N94   H132   0.87354       .     S
H132  N94    0.87354       .     S
N95   C96    1.30193   1_565     S
C96   N95    1.30193   1_545     S
N95   H124   0.85330       .     S
H124  N95    0.85330       .     S
N95   H129   0.85232       .     S
H129  N95    0.85232       .     S
C96   C97    1.48527       .     S
C97   C96    1.48527       .     S
C97   C98    1.39580       .     S
C98   C97    1.39580       .     S
C97   C102   1.39392       .     S
C102  C97    1.39392       .     S
C98   C99    1.37807       .     S
C99   C98    1.37807       .     S
C98   H106   0.94384       .     S
H106  C98    0.94384       .     S
C99   C100   1.39671       .     S
C100  C99    1.39671       .     S
C99   H105   0.94581       .     S
H105  C99    0.94581       .     S
C100  C101   1.38282       .     S
C101  C100   1.38282       .     S
C101  C102   1.38642       .     S
C102  C101   1.38642       .     S
C101  H108   0.92289   1_545     S
H108  C101   0.92289   1_565     S
C102  H107   0.92751   1_545     S
H107  C102   0.92751   1_565     S
O134  H135   0.85654       .     S
H135  O134   0.85654       .     S
O134  H136   0.82842       .     S
H136  O134   0.82842       .     S
O137  C148   1.25984   1_655     S
C148  O137   1.25984   1_455     S
O138  C140   1.26318       .     S
C140  O138   1.26318       .     S
O139  C140   1.25277       .     S
C140  O139   1.25277       .     S
C140  C141   1.51611       .     S
C141  C140   1.51611       .     S
C141  C142   1.39154       .     S
C142  C141   1.39154       .     S
C141  C146   1.39357       .     S
C146  C141   1.39357       .     S
C142  C143   1.39178       .     S
C143  C142   1.39178       .     S
C142  H162   0.92816       .     S
H162  C142   0.92816       .     S
C143  C144   1.38779       .     S
C144  C143   1.38779       .     S
C143  H161   0.94791       .     S
H161  C143   0.94791       .     S
C144  C145   1.39245       .     S
C145  C144   1.39245       .     S
C144  C152   1.49063       .     S
C152  C144   1.49063       .     S
C145  C146   1.39232       .     S
C146  C145   1.39232       .     S
C145  H156   0.96393       .     S
H156  C145   0.96393       .     S
C146  H155   0.95433       .     S
H155  C146   0.95433       .     S
O147  C148   1.26101   1_655     S
C148  O147   1.26101   1_455     S
C148  C149   1.51946       .     S
C149  C148   1.51946       .     S
C149  C150   1.38796       .     S
C150  C149   1.38796       .     S
C149  C154   1.39078       .     S
C154  C149   1.39078       .     S
C150  C151   1.39637       .     S
C151  C150   1.39637       .     S
C150  H159   0.94406       .     S
H159  C150   0.94406       .     S
C151  C152   1.40945       .     S
C152  C151   1.40945       .     S
C151  H160   0.94200       .     S
H160  C151   0.94200       .     S
C152  C153   1.37818       .     S
C153  C152   1.37818       .     S
C153  C154   1.38705       .     S
C154  C153   1.38705       .     S
C153  H157   0.95942       .     S
H157  C153   0.95942       .     S
C154  H158   0.93826       .     S
H158  C154   0.93826       .     S
O163  S164   1.51767       .     S
S164  O163   1.51767       .     S
S164  C165   1.81975   1_545     S
C165  S164   1.81975   1_565     S
S164  C166   1.68946   1_545     S
C166  S164   1.68946   1_565     S
C165  H167   0.95001   1_554     S
H167  C165   0.95001   1_556     S
C165  H168   0.95002       .     S
H168  C165   0.95002       .     S
C165  H169   0.95044   1_565     S
H169  C165   0.95044   1_545     S
C166  H170   0.94955       .     S
H170  C166   0.94955       .     S
C166  H171   0.94921       .     S
H171  C166   0.94921       .     S
C166  H172   0.94993       .     S
H172  C166   0.94993       .     S
O30   H27    1.96596       .     S
H27   O30    1.96596       .     S
O0    H65    1.85955   1_655     S
H65   O0     1.85956   1_455     S
O134  H119   1.99498       .     S
H119  O134   1.99498       .     S
O42   H120   1.96289       .     S
H120  O42    1.96289       .     S
O1    H121   1.94322       .     S
H121  O1     1.94322       .     S
O30   H122   1.92260       .     S
H122  O30    1.92260       .     S
O137  H123   2.06845       .     S
H123  O137   2.06845       .     S
O138  H125   1.92548       .     S
H125  O138   1.92548       .     S
O147  H126   1.88908       .     S
H126  O147   1.88908       .     S
O163  H128   2.01703       .     S
H128  O163   2.01703       .     S
O1    H129   1.99042   1_655     S
H129  O1     1.99042   1_455     S
O139  H130   1.92473       .     S
H130  O139   1.92473       .     S
O26   H131   2.06620       .     S
H131  O26    2.06620       .     S
O55   H132   1.95481       .     S
H132  O55    1.95481       .     S
O137  H133   2.00668       .     S
H133  O137   2.00668       .     S
O138  H136   1.98336       .     S
H136  O138   1.98336       .     S
O139  H136   2.55998       .     S
H136  O139   2.55998       .     S
C2    O0     1.24660       .     S
O0    C2     1.24660       .     S
C2    O1     1.26528   1_545     S
O1    C2     1.26528   1_565     S
C3    C2     1.50721       .     S
C2    C3     1.50721       .     S
C4    C3     1.38898   1_565     S
C3    C4     1.38898   1_545     S
C8    C3     1.38840       .     S
C3    C8     1.38840       .     S
C5    C4     1.37907       .     S
C4    C5     1.37907       .     S
H9    C4     0.93017       .     S
C4    H9     0.93017       .     S
C6    C5     1.40149   1_545     S
C5    C6     1.40149   1_565     S
H10   C5     0.93878       .     S
C5    H10    0.93878       .     S
C7    C6     1.39391       .     S
C6    C7     1.39391       .     S
C19   C6     1.49233   1_565     S
C6    C19    1.49233   1_545     S
C8    C7     1.38722       .     S
C7    C8     1.38722       .     S
H11   C7     0.92218       .     S
C7    H11    0.92218       .     S
H12   C8     0.95277       .     S
C8    H12    0.95277       .     S
C15   O13    1.26528   1_565     S
O13   C15    1.26528   1_545     S
C15   O14    1.24660       .     S
O14   C15    1.24660       .     S
C16   C15    1.50721       .     S
C15   C16    1.50721       .     S
C17   C16    1.38898   1_545     S
C16   C17    1.38898   1_565     S
C21   C16    1.38840       .     S
C16   C21    1.38840       .     S
C18   C17    1.37907       .     S
C17   C18    1.37907       .     S
H22   C17    0.93017       .     S
C17   H22    0.93017       .     S
C19   C18    1.40149   1_565     S
C18   C19    1.40149   1_545     S
H23   C18    0.93878       .     S
C18   H23    0.93878       .     S
C20   C19    1.39391       .     S
C19   C20    1.39391       .     S
C21   C20    1.38722       .     S
C20   C21    1.38722       .     S
H24   C20    0.92218       .     S
C20   H24    0.92218       .     S
H25   C21    0.95277       .     S
C21   H25    0.95277       .     S
H27   O26    0.83479       .     S
O26   H27    0.83479       .     S
H28   O26    0.82124       .     S
O26   H28    0.82124       .     S
C31   O29    1.23802       .     S
O29   C31    1.23802       .     S
C31   O30    1.27468       .     S
O30   C31    1.27468       .     S
C32   C31    1.52334       .     S
C31   C32    1.52334       .     S
C33   C32    1.37130       .     S
C32   C33    1.37130       .     S
C37   C32    1.39676       .     S
C32   C37    1.39676       .     S
C34   C33    1.38853   1_554     S
C33   C34    1.38853   1_556     S
H38   C33    0.92101       .     S
C33   H38    0.92101       .     S
C35   C34    1.40234   1_556     S
C34   C35    1.40234   1_554     S
H39   C34    0.92934       .     S
C34   H39    0.92934       .     S
C36   C35    1.39209       .     S
C35   C36    1.39209       .     S
C48   C35    1.48596   1_554     S
C35   C48    1.48596   1_556     S
C37   C36    1.39045       .     S
C36   C37    1.39045       .     S
H40   C36    0.94561       .     S
C36   H40    0.94561       .     S
H41   C37    0.95147       .     S
C37   H41    0.95147       .     S
C44   O42    1.23802       .     S
O42   C44    1.23802       .     S
C44   O43    1.27468       .     S
O43   C44    1.27468       .     S
C45   C44    1.52335       .     S
C44   C45    1.52335       .     S
C46   C45    1.37130       .     S
C45   C46    1.37130       .     S
C50   C45    1.39676       .     S
C45   C50    1.39676       .     S
C47   C46    1.38853   1_556     S
C46   C47    1.38853   1_554     S
H51   C46    0.92101       .     S
C46   H51    0.92101       .     S
C48   C47    1.40234   1_554     S
C47   C48    1.40234   1_556     S
H52   C47    0.92934       .     S
C47   H52    0.92934       .     S
C49   C48    1.39209       .     S
C48   C49    1.39209       .     S
C50   C49    1.39045       .     S
C49   C50    1.39045       .     S
H53   C49    0.94561       .     S
C49   H53    0.94561       .     S
H54   C50    0.95147       .     S
C50   H54    0.95147       .     S
S56   O55    1.50663       .     S
O55   S56    1.50663       .     S
C57   S56    1.76981       .     S
S56   C57    1.76981       .     S
C58   S56    1.77066       .     S
S56   C58    1.77066       .     S
H59   C57    0.95107       .     S
C57   H59    0.95107       .     S
H60   C57    0.94967       .     S
C57   H60    0.94967       .     S
H61   C57    0.95016       .     S
C57   H61    0.95016       .     S
H62   C58    0.94972       .     S
C58   H62    0.94972       .     S
H63   C58    0.95045       .     S
C58   H63    0.95045       .     S
H64   C58    0.94889       .     S
C58   H64    0.94889       .     S
N94   H65    0.87242       .     S
H65   N94    0.87242       .     S
C68   N66    1.30754       .     S
N66   C68    1.30754       .     S
H130  N66    0.86797       .     S
N66   H130   0.86797       .     S
H133  N66    0.86748       .     S
N66   H133   0.86748       .     S
C68   N67    1.32440       .     S
N67   C68    1.32440       .     S
H127  N67    0.88433       .     S
N67   H127   0.88433       .     S
H131  N67    0.87400       .     S
N67   H131   0.87400       .     S
C69   C68    1.48732       .     S
C68   C69    1.48732       .     S
C70   C69    1.39924       .     S
C69   C70    1.39924       .     S
C74   C69    1.39788       .     S
C69   C74    1.39788       .     S
C71   C70    1.38847       .     S
C70   C71    1.38847       .     S
H111  C70    0.93891       .     S
C70   H111   0.93891       .     S
C72   C71    1.38620       .     S
C71   C72    1.38620       .     S
H112  C71    0.91334       .     S
C71   H112   0.91334       .     S
C73   C72    1.40040       .     S
C72   C73    1.40040       .     S
C93   C72    1.54364       .     S
C72   C93    1.54364       .     S
C74   C73    1.38460       .     S
C73   C74    1.38460       .     S
H109  C73    0.93109       .     S
C73   H109   0.93109       .     S
H110  C74    0.90561       .     S
C74   H110   0.90561       .     S
C77   N75    1.31754       .     S
N75   C77    1.31754       .     S
H120  N75    0.86649       .     S
N75   H120   0.86649       .     S
H125  N75    0.86771       .     S
N75   H125   0.86771       .     S
C77   N76    1.31325       .     S
N76   C77    1.31325       .     S
H119  N76    0.87162       .     S
N76   H119   0.87162       .     S
H128  N76    0.87059       .     S
N76   H128   0.87059       .     S
C78   C77    1.48323       .     S
C77   C78    1.48323       .     S
C79   C78    1.39928       .     S
C78   C79    1.39928       .     S
C83   C78    1.38877       .     S
C78   C83    1.38877       .     S
C80   C79    1.38489       .     S
C79   C80    1.38489       .     S
H115  C79    0.93649       .     S
C79   H115   0.93649       .     S
C81   C80    1.39424   1_556     S
C80   C81    1.39424   1_554     S
H116  C80    0.95683   1_556     S
C80   H116   0.95683   1_554     S
C82   C81    1.39406       .     S
C81   C82    1.39406       .     S
C93   C81    1.54652       .     S
C81   C93    1.54652       .     S
C83   C82    1.39049   1_554     S
C82   C83    1.39049   1_556     S
H113  C82    0.94956       .     S
C82   H113   0.94956       .     S
H114  C83    0.93128       .     S
C83   H114   0.93128       .     S
C86   N84    1.30867       .     S
N84   C86    1.30867       .     S
H122  N84    0.86992       .     S
N84   H122   0.86992       .     S
H123  N84    0.84835       .     S
N84   H123   0.84835       .     S
C86   N85    1.30760       .     S
N85   C86    1.30760       .     S
H121  N85    0.87160       .     S
N85   H121   0.87160       .     S
H126  N85    0.86957       .     S
N85   H126   0.86957       .     S
C87   C86    1.49209       .     S
C86   C87    1.49209       .     S
C88   C87    1.39650       .     S
C87   C88    1.39650       .     S
C92   C87    1.38763   1_545     S
C87   C92    1.38763   1_565     S
C89   C88    1.37916       .     S
C88   C89    1.37916       .     S
H103  C88    0.93262       .     S
C88   H103   0.93262       .     S
C90   C89    1.40317   1_545     S
C89   C90    1.40317   1_565     S
H104  C89    0.93894       .     S
C89   H104   0.93894       .     S
C91   C90    1.39114       .     S
C90   C91    1.39114       .     S
C93   C90    1.54541       .     S
C90   C93    1.54541       .     S
C92   C91    1.38891       .     S
C91   C92    1.38891       .     S
H117  C91    0.93729       .     S
C91   H117   0.93729       .     S
H118  C92    0.94246       .     S
C92   H118   0.94246       .     S
C100  C93    1.54667       .     S
C93   C100   1.54667       .     S
C96   N94    1.30964       .     S
N94   C96    1.30964       .     S
H132  N94    0.87354       .     S
N94   H132   0.87354       .     S
C96   N95    1.30193   1_545     S
N95   C96    1.30193   1_565     S
H124  N95    0.85330       .     S
N95   H124   0.85330       .     S
H129  N95    0.85232       .     S
N95   H129   0.85232       .     S
C97   C96    1.48527       .     S
C96   C97    1.48527       .     S
C98   C97    1.39580       .     S
C97   C98    1.39580       .     S
C102  C97    1.39392       .     S
C97   C102   1.39392       .     S
C99   C98    1.37807       .     S
C98   C99    1.37807       .     S
H106  C98    0.94384       .     S
C98   H106   0.94384       .     S
C100  C99    1.39671       .     S
C99   C100   1.39671       .     S
H105  C99    0.94581       .     S
C99   H105   0.94581       .     S
C101  C100   1.38282       .     S
C100  C101   1.38282       .     S
C102  C101   1.38642       .     S
C101  C102   1.38642       .     S
H108  C101   0.92289   1_565     S
C101  H108   0.92289   1_545     S
H107  C102   0.92751   1_565     S
C102  H107   0.92751   1_545     S
H135  O134   0.85654       .     S
O134  H135   0.85654       .     S
H136  O134   0.82842       .     S
O134  H136   0.82842       .     S
C148  O137   1.25984   1_455     S
O137  C148   1.25984   1_655     S
C140  O138   1.26318       .     S
O138  C140   1.26318       .     S
C140  O139   1.25277       .     S
O139  C140   1.25277       .     S
C141  C140   1.51611       .     S
C140  C141   1.51611       .     S
C142  C141   1.39154       .     S
C141  C142   1.39154       .     S
C146  C141   1.39357       .     S
C141  C146   1.39357       .     S
C143  C142   1.39178       .     S
C142  C143   1.39178       .     S
H162  C142   0.92816       .     S
C142  H162   0.92816       .     S
C144  C143   1.38779       .     S
C143  C144   1.38779       .     S
H161  C143   0.94791       .     S
C143  H161   0.94791       .     S
C145  C144   1.39245       .     S
C144  C145   1.39245       .     S
C152  C144   1.49063       .     S
C144  C152   1.49063       .     S
C146  C145   1.39232       .     S
C145  C146   1.39232       .     S
H156  C145   0.96393       .     S
C145  H156   0.96393       .     S
H155  C146   0.95433       .     S
C146  H155   0.95433       .     S
C148  O147   1.26101   1_455     S
O147  C148   1.26101   1_655     S
C149  C148   1.51946       .     S
C148  C149   1.51946       .     S
C150  C149   1.38796       .     S
C149  C150   1.38796       .     S
C154  C149   1.39078       .     S
C149  C154   1.39078       .     S
C151  C150   1.39637       .     S
C150  C151   1.39637       .     S
H159  C150   0.94406       .     S
C150  H159   0.94406       .     S
C152  C151   1.40945       .     S
C151  C152   1.40945       .     S
H160  C151   0.94200       .     S
C151  H160   0.94200       .     S
C153  C152   1.37818       .     S
C152  C153   1.37818       .     S
C154  C153   1.38705       .     S
C153  C154   1.38705       .     S
H157  C153   0.95942       .     S
C153  H157   0.95942       .     S
H158  C154   0.93826       .     S
C154  H158   0.93826       .     S
S164  O163   1.51767       .     S
O163  S164   1.51767       .     S
C165  S164   1.81975   1_565     S
S164  C165   1.81975   1_545     S
C166  S164   1.68946   1_565     S
S164  C166   1.68946   1_545     S
H167  C165   0.95001   1_556     S
C165  H167   0.95001   1_554     S
H168  C165   0.95002       .     S
C165  H168   0.95002       .     S
H169  C165   0.95044   1_545     S
C165  H169   0.95044   1_565     S
H170  C166   0.94955       .     S
C166  H170   0.94955       .     S
H171  C166   0.94921       .     S
C166  H171   0.94921       .     S
H172  C166   0.94993       .     S
C166  H172   0.94993       .     S
