data_I
_chemical_name_common  '/data/user2/wty/HOF/MOFDiff/mofdiff/data/test/294-2_5'
_cell_length_a 15.66060
_cell_length_b 18.93120
_cell_length_c 20.42500
_cell_angle_alpha 86.18540
_cell_angle_beta  79.76960
_cell_angle_gamma 72.53030
_space_group_name_H-M_alt      'P 1'


loop_
_space_group_symop_operation_xyz
  'x, y, z' 

loop_
_atom_site_label
_atom_site_fract_x
_atom_site_fract_y
_atom_site_fract_z
_atom_site_type_symbol
O0     0.80578  0.77621  0.66215     O
N1     0.40595  0.44931  0.98712     N
C2     0.36806  0.40728  0.03351     C
C3      0.2967  0.38819  0.00896     C
C4      0.2932  0.41833  0.94732     C
C5     0.36076  0.45736  0.93428     C
C6     0.39309  0.38545  0.09637     C
N7     0.51193  0.44838  0.09251     N
C8     0.56907  0.45484  0.13428     C
C9      0.5546  0.40997  0.19231     C
C10     0.4896  0.37936  0.18491     C
C11      0.461  0.40389  0.12186     C
C12    0.62704  0.49956  0.12355     C
O13     0.1687  0.17038  0.25385     O
O14    0.19422  0.22379  0.33785     O
C15     0.2007   0.2141    0.277     C
C16     0.2488  0.25863  0.22901     C
C17     0.2903  0.23257  0.16546     C
C18    0.33718  0.27336  0.12253     C
C19    0.34145  0.34142  0.14109     C
C20     0.2965  0.36861   0.2041     C
C21     0.2526  0.32671  0.24759     C
O22    0.81411  0.47808  0.38618     O
O23     0.7883  0.59934  0.36357     O
C24     0.7894  0.53502   0.3523     C
C25     0.7545    0.523  0.28991     C
C26     0.7778   0.4556  0.25754     C
C27     0.7403   0.4457  0.20168     C
C28    0.67508  0.50542  0.17897     C
C29     0.6541   0.5732  0.21055     C
C30     0.6927   0.5827   0.2643     C
H31     0.2584   0.3614   0.0307     H
H32     0.2545   0.4112   0.9186     H
H33     0.5874   0.4033   0.2288     H
H34     0.4696   0.3474   0.2141     H
H35     0.2851   0.1867   0.1536     H
H36     0.3674    0.255   0.0788     H
H37     0.2942   0.4156   0.2173     H
H38     0.2263   0.3434   0.2911     H
H39     0.8201   0.4134   0.2702     H
H40     0.7555   0.3992   0.1815     H
H41      0.612   0.6159   0.1938     H
H42     0.6798   0.6311   0.2843     H
H43     0.5038   0.4729   0.0566     H
N44    0.59405  0.55069  0.01288     N
C45    0.63194  0.59272  0.96649     C
C46     0.7033  0.61181  0.99104     C
C47     0.7068  0.58167  0.05268     C
C48    0.63924  0.54264  0.06572     C
C49    0.60691  0.61455  0.90363     C
N50    0.48807  0.55162  0.90749     N
C51    0.43093  0.54516  0.86572     C
C52     0.4454  0.59003  0.80769     C
C53     0.5104  0.62064  0.81509     C
C54      0.539  0.59611  0.87814     C
C55    0.37296  0.50044  0.87645     C
O56     0.8313  0.82962  0.74615     O
C57     0.7993   0.7859    0.723     C
C58     0.7512  0.74137  0.77099     C
C59     0.7097  0.76743  0.83454     C
C60    0.66282  0.72664  0.87747     C
C61    0.65855  0.65858  0.85891     C
C62     0.7035  0.63139   0.7959     C
C63     0.7474  0.67329  0.75241     C
O64    0.18589  0.52192  0.61382     O
O65     0.2117  0.40066  0.63643     O
C66     0.2106  0.46498   0.6477     C
C67     0.2455    0.477  0.71009     C
C68     0.2222   0.5444  0.74246     C
C69     0.2597   0.5543  0.79832     C
C70    0.32492  0.49458  0.82103     C
C71     0.3459   0.4268  0.78945     C
C72     0.3073   0.4173   0.7357     C
H73     0.7416   0.6386   0.9693     H
H74     0.7455   0.5888   0.0814     H
H75     0.4126   0.5967   0.7712     H
H76     0.5304   0.6526   0.7859     H
H77     0.7149   0.8133   0.8464     H
H78     0.6326    0.745   0.9212     H
H79     0.7058   0.5844   0.7827     H
H80     0.7737   0.6566   0.7089     H
H81     0.1799   0.5866   0.7298     H
H82     0.2445   0.6008   0.8185     H
H83      0.388   0.3841   0.8062     H
H84     0.3202   0.3689   0.7157     H
H85     0.4962   0.5271   0.9434     H
H86      0.829   0.9023   0.5379     H
N87    0.06964  0.09579  0.34647     N
N88    0.15159  0.11065   0.4242     N
C89    0.09144  0.08391  0.40652     C
C90    0.04485  0.03996   0.4546     C
C91    0.01849  0.98317  0.43266     C
C92    0.02674  0.05664  0.52204     C
H93     0.0325   0.9718   0.3869     H
H94     0.0444   0.0956   0.5379     H
H95     0.0241   0.0817   0.3384     H
H96      0.176    0.139   0.3969     H
H97      0.171   0.0977   0.4621     H
H98      0.094    0.124   0.3188     H
N99    0.93036  0.90421  0.65353     N
N100   0.84841  0.88935   0.5758     N
C101   0.90856  0.91609  0.59348     C
C102   0.95515  0.96004   0.5454     C
C103   0.98151  0.01683  0.56734     C
C104   0.97326  0.94336  0.47796     C
H105    0.9675   0.0282   0.6131     H
H106    0.9556   0.9044   0.4621     H
H107    0.9759   0.9183   0.6616     H
H108     0.824    0.861   0.6031     H
H109     0.906    0.876   0.6812     H
O110    0.7862  0.90844  0.45692     O
N111    0.5498  0.83159  0.14257     N
C112    0.5879  0.85332   0.1901     C
C113    0.5577  0.82562  0.25566     C
C114    0.5038  0.78485  0.24611     C
C115   0.49816   0.7892   0.1756     C
C116   0.45007  0.75172  0.14629     C
N117   0.47491  0.80131   0.0312     N
C118   0.44298   0.7556  0.07842     C
C119   0.39514  0.71886  0.04558     C
C120   0.39723  0.74411  0.98128     C
C121   0.44492  0.79858  0.97229     C
C122   0.45556  0.84306  0.91532     C
N123   0.56011  0.90206  0.95064     N
C124   0.50723  0.89291  0.90722     C
C125   0.51448  0.94028  0.84816     C
C126    0.5744  0.97636  0.85605     C
C127   0.60378  0.95108  0.91995     C
C128   0.66987  0.97364   0.9441     C
N129   0.64356  0.92755  0.05954     N
C130   0.68993  0.95915  0.00846     C
C131   0.76167  0.97387   0.0343     C
C132   0.75583  0.95276  0.09964     C
C133   0.68041  0.92329  0.11633     C
C134   0.65143  0.89389  0.17787     C
O135   0.79519  0.01791  0.41407     O
C136    0.7815  0.95649  0.41094     C
C137    0.7552   0.9388  0.34762     C
C138     0.764  0.86618  0.33211     C
C139    0.7336  0.85077  0.27607     C
C140   0.69141  0.90832  0.23536     C
C141    0.6856  0.98072  0.25019     C
C142    0.7179  0.99544  0.30538     C
O143   0.90879  0.17652   0.7847     O
O144   0.88819   0.1191  0.69993     O
C145   0.87757  0.13201  0.76101     C
C146   0.82393  0.09086  0.80883     C
C147   0.78041  0.12029  0.87065     C
C148   0.73006  0.08254   0.9144     C
C149   0.72396   0.0142  0.89774     C
C150   0.76952  0.98425    0.836     C
C151   0.81775  0.02276   0.7916     C
O152    0.3167    0.777   0.6518     O
O153    0.1934   0.7904   0.7256     O
C154    0.2745   0.7904   0.7097     C
C155    0.3231  0.80792   0.7598     C
C156     0.416  0.80061  0.74696     C
C157    0.4598  0.81248  0.79715     C
C158   0.40971  0.83356  0.86028     C
C159    0.3162  0.84399  0.87166     C
C160    0.2733   0.8299   0.8223     C
O161   0.26461  0.50814   0.2987     O
O162   0.20681  0.60003   0.3703     O
C163   0.25528  0.57249  0.31668     C
C164   0.30402  0.61962  0.27188     C
C165    0.3698  0.58777   0.2185     C
C166   0.41731  0.63053  0.17791     C
C167   0.39919  0.70572  0.18969     C
C168   0.33204  0.73738   0.2429     C
C169   0.28535  0.69495    0.284     C
H170    0.5754   0.8326   0.2961     H
H171    0.4744   0.7565   0.2799     H
H172    0.3682   0.6819    0.065     H
H173     0.374   0.7296   0.9481     H
H174    0.4825    0.944   0.8116     H
H175    0.5977   0.0105   0.8249     H
H176    0.8045   0.9967   0.0103     H
H177    0.7932   0.9553   0.1298     H
H178    0.7915   0.8276   0.3602     H
H179    0.7443   0.8003   0.2654     H
H180    0.6586   0.0184   0.2217     H
H181    0.7134   0.0454    0.314     H
H182    0.7824    0.166   0.8834     H
H183    0.6992   0.1039   0.9566     H
H184    0.7678   0.9364   0.8244     H
H185    0.8484   0.0033   0.7491     H
H186    0.4489   0.7889   0.7051     H
H187    0.5239   0.8079   0.7884     H
H188    0.2818   0.8614   0.9148     H
H189    0.2108   0.8352   0.8307     H
H190    0.3846   0.5352   0.2085     H
H191    0.4642   0.6086   0.1419     H
H192    0.3183   0.7885   0.2506     H
H193    0.2394    0.718   0.3202     H
H194     0.509   0.8283   0.0373     H
H195       0.6   0.9091   0.0556     H
N196    0.4931   0.2548   0.5175     N
N197    0.6313  0.26612   0.5283     N
C198     0.544   0.2936    0.534     C
N199    0.2984   0.6292   0.6121     N
N200    0.4369  0.63549   0.6295     N
C201    0.3854   0.5978  0.61327     C
C202       0.5  0.37128   0.5581     C
C203    0.4294  0.41758   0.5283     C
C204    0.3932  0.49109  0.54656     C
C205    0.4248  0.51953  0.59568     C
C206    0.4943   0.4731   0.6269     C
C207     0.531      0.4   0.6086     C
H208    0.4039   0.3986    0.496     H
H209    0.3483    0.523   0.5263     H
H210    0.5154   0.4924   0.6599     H
H211    0.5758   0.3686   0.6302     H
H212    0.5184   0.2088    0.501     H
H213     0.444    0.257   0.5469     H
H214    0.6662   0.2933    0.536     H
H215    0.6566   0.2194    0.517     H
H216    0.2781   0.6771    0.615     H
H217    0.2653   0.6048      0.6     H
H218     0.418   0.6832     0.63     H
H219    0.4948   0.6137    0.628     H
H220     0.922   0.1872    0.634     H
N221   0.94018  0.21951  0.60728     N
N222   0.98439   0.2649  0.69269     N
C223   0.97858  0.26351  0.62934     C
N224   0.14357  0.44715  0.38592     N
N225   0.17646  0.49615  0.47478     N
C226   0.14162   0.4511  0.45036     C
C227    0.0186  0.31274  0.58214     C
C228    0.0619  0.28767  0.51855     C
C229    0.1007  0.33335  0.47488     C
C230   0.09751  0.40298  0.49593     C
C231   0.05363   0.4277  0.55909     C
C232   0.01316   0.3828  0.60218     C
H233    0.0661   0.2399   0.5038     H
H234    0.1292   0.3171   0.4326     H
H235    0.0538   0.4756   0.5713     H
H236    0.9825   0.4001   0.6454     H
H237     0.198   0.5267   0.4476     H
H238     0.017   0.2909   0.7047     H
H239     0.176   0.4974   0.5168     H
H240    0.1084   0.4257   0.3724     H
H241     0.963   0.2355   0.7205     H
H242     0.173   0.4722   0.3585     H
H243     0.935   0.2203   0.5653     H
N244    0.9438    0.026   0.1796     N
N245    0.9794   0.1295     0.13     N
C246    0.9689   0.0634   0.1273     C
C247    0.9849   0.0306   0.0608     C
C248    0.0254    0.954   0.0553     C
C249    0.9586   0.0773   0.0072     C
H250    0.0422   0.9245    0.092     H
H251    0.9307   0.1291   0.0147     H
H252     0.937    0.045    0.219     H
H253     0.935    0.982   0.1768     H
H254     0.974     0.15   0.1684     H
H255     0.028     0.14    0.109     H
N256    0.0562    0.974   0.8204     N
N257    0.0206   0.8705     0.87     N
C258    0.0311   0.9366   0.8727     C
C259    0.0151   0.9694   0.9392     C
C260    0.9746    0.046   0.9447     C
C261    0.0414   0.9227   0.9928     C
H262    0.9578   0.0755    0.908     H
H263    0.0693   0.8709   0.9853     H
H264     0.063    0.955    0.781     H
H265     0.065    0.018   0.8232     H
H266     0.026     0.85   0.8316     H
H267     0.972     0.86    0.891     H
loop_
_geom_bond_atom_site_label_1
_geom_bond_atom_site_label_2
_geom_bond_distance
_geom_bond_site_symmetry_2
_ccdc_geom_bond_type
H43   N1     2.41439   1_554     S
N1    H43    2.41439   1_556     S
H43   N44    2.36435       .     S
N44   H43    2.36435       .     S
H85   N1     2.36435       .     S
N1    H85    2.36435       .     S
H85   N44    2.41439   1_556     S
N44   H85    2.41439   1_554     S
H86   O110   1.87616       .     S
O110  H86    1.87616       .     S
H96   O14    2.00196       .     S
O14   H96    2.00196       .     S
H98   O13    1.95187       .     S
O13   H98    1.95187       .     S
H108  O0     2.00196       .     S
O0    H108   2.00196       .     S
H109  O56    1.95187       .     S
O56   H109   1.95187       .     S
H194  N111   2.35902       .     S
N111  H194   2.35902       .     S
H194  N123   2.35848   1_554     S
N123  H194   2.35848   1_556     S
H195  N111   2.40341       .     S
N111  H195   2.40341       .     S
H195  N123   2.35959   1_554     S
N123  H195   2.35959   1_556     S
H216  O152   2.35458       .     S
O152  H216   2.35458       .     S
H217  O64    2.25299       .     S
O64   H217   2.25299       .     S
H218  O152   2.00778       .     S
O152  H218   2.00778       .     S
H220  O144   1.91870       .     S
O144  H220   1.91870       .     S
H237  O162   2.04572       .     S
O162  H237   2.04572       .     S
H239  O64    2.10735       .     S
O64   H239   2.10735       .     S
H241  O143   1.91463       .     S
O143  H241   1.91463       .     S
H242  O161   1.96624       .     S
O161  H242   1.96624       .     S
O0    C57    1.25020       .     S
C57   O0     1.25020       .     S
N1    C2     1.36618   1_556     S
C2    N1     1.36618   1_554     S
N1    C5     1.36877       .     S
C5    N1     1.36877       .     S
C2    C3     1.44796       .     S
C3    C2     1.44796       .     S
C2    C6     1.40847       .     S
C6    C2     1.40847       .     S
C3    C4     1.35048   1_554     S
C4    C3     1.35048   1_556     S
C3    H31    0.93393       .     S
H31   C3     0.93393       .     S
C4    C5     1.44201       .     S
C5    C4     1.44201       .     S
C4    H32    0.95686       .     S
H32   C4     0.95686       .     S
C5    C55    1.40785       .     S
C55   C5     1.40785       .     S
C6    C11    1.40277       .     S
C11   C6     1.40277       .     S
C6    C19    1.49136       .     S
C19   C6     1.49136       .     S
N7    C8     1.37635       .     S
C8    N7     1.37635       .     S
N7    C11    1.36793       .     S
C11   N7     1.36793       .     S
N7    H43    0.84973       .     S
H43   N7     0.84973       .     S
C8    C9     1.43665       .     S
C9    C8     1.43665       .     S
C8    C12    1.39823       .     S
C12   C8     1.39823       .     S
C9    C10    1.34734       .     S
C10   C9     1.34734       .     S
C9    H33    0.95907       .     S
H33   C9     0.95907       .     S
C10   C11    1.44053       .     S
C11   C10    1.44053       .     S
C10   H34    0.90504       .     S
H34   C10    0.90504       .     S
C12   C28    1.49297       .     S
C28   C12    1.49297       .     S
C12   C48    1.40785       .     S
C48   C12    1.40785       .     S
O13   C15    1.24299       .     S
C15   O13    1.24299       .     S
O14   C15    1.25020       .     S
C15   O14    1.25020       .     S
C15   C16    1.49930       .     S
C16   C15    1.49930       .     S
C16   C17    1.39415       .     S
C17   C16    1.39415       .     S
C16   C21    1.38846       .     S
C21   C16    1.38846       .     S
C17   C18    1.38773       .     S
C18   C17    1.38773       .     S
C17   H35    0.94702       .     S
H35   C17    0.94702       .     S
C18   C19    1.39069       .     S
C19   C18    1.39069       .     S
C18   H36    0.96693       .     S
H36   C18    0.96693       .     S
C19   C20    1.40199       .     S
C20   C19    1.40199       .     S
C20   C21    1.38117       .     S
C21   C20    1.38117       .     S
C20   H37    0.93518       .     S
H37   C20    0.93518       .     S
C21   H38    0.94258       .     S
H38   C21    0.94258       .     S
O22   C24    1.23935       .     S
C24   O22    1.23935       .     S
O23   C24    1.24870       .     S
C24   O23    1.24870       .     S
C24   C25    1.52808       .     S
C25   C24    1.52808       .     S
C25   C26    1.39477       .     S
C26   C25    1.39477       .     S
C25   C30    1.38999       .     S
C30   C25    1.38999       .     S
C26   C27    1.41926       .     S
C27   C26    1.41926       .     S
C26   H39    0.92711       .     S
H39   C26    0.92711       .     S
C27   C28    1.39348       .     S
C28   C27    1.39348       .     S
C27   H40    0.94292       .     S
H40   C27    0.94292       .     S
C28   C29    1.39722       .     S
C29   C28    1.39722       .     S
C29   C30    1.38935       .     S
C30   C29    1.38935       .     S
C29   H41    0.96360       .     S
H41   C29    0.96360       .     S
C30   H42    0.97805       .     S
H42   C30    0.97805       .     S
N44   C45    1.36618   1_554     S
C45   N44    1.36618   1_556     S
N44   C48    1.36877       .     S
C48   N44    1.36877       .     S
C45   C46    1.44796       .     S
C46   C45    1.44796       .     S
C45   C49    1.40847       .     S
C49   C45    1.40847       .     S
C46   C47    1.35048   1_556     S
C47   C46    1.35048   1_554     S
C46   H73    0.93393       .     S
H73   C46    0.93393       .     S
C47   C48    1.44201       .     S
C48   C47    1.44201       .     S
C47   H74    0.95686       .     S
H74   C47    0.95686       .     S
C49   C54    1.40277       .     S
C54   C49    1.40277       .     S
C49   C61    1.49136       .     S
C61   C49    1.49136       .     S
N50   C51    1.37635       .     S
C51   N50    1.37635       .     S
N50   C54    1.36793       .     S
C54   N50    1.36793       .     S
N50   H85    0.84973       .     S
H85   N50    0.84973       .     S
C51   C52    1.43665       .     S
C52   C51    1.43665       .     S
C51   C55    1.39823       .     S
C55   C51    1.39823       .     S
C52   C53    1.34734       .     S
C53   C52    1.34734       .     S
C52   H75    0.95907       .     S
H75   C52    0.95907       .     S
C53   C54    1.44052       .     S
C54   C53    1.44052       .     S
C53   H76    0.90503       .     S
H76   C53    0.90503       .     S
C55   C70    1.49297       .     S
C70   C55    1.49297       .     S
O56   C57    1.24299       .     S
C57   O56    1.24299       .     S
C57   C58    1.49930       .     S
C58   C57    1.49930       .     S
C58   C59    1.39415       .     S
C59   C58    1.39415       .     S
C58   C63    1.38846       .     S
C63   C58    1.38846       .     S
C59   C60    1.38773       .     S
C60   C59    1.38773       .     S
C59   H77    0.94702       .     S
H77   C59    0.94702       .     S
C60   C61    1.39069       .     S
C61   C60    1.39069       .     S
C60   H78    0.96693       .     S
H78   C60    0.96693       .     S
C61   C62    1.40200       .     S
C62   C61    1.40200       .     S
C62   C63    1.38117       .     S
C63   C62    1.38117       .     S
C62   H79    0.93518       .     S
H79   C62    0.93518       .     S
C63   H80    0.94258       .     S
H80   C63    0.94258       .     S
O64   C66    1.23935       .     S
C66   O64    1.23935       .     S
O65   C66    1.24870       .     S
C66   O65    1.24870       .     S
C66   C67    1.52808       .     S
C67   C66    1.52808       .     S
C67   C68    1.39476       .     S
C68   C67    1.39476       .     S
C67   C72    1.38999       .     S
C72   C67    1.38999       .     S
C68   C69    1.41926       .     S
C69   C68    1.41926       .     S
C68   H81    0.92712       .     S
H81   C68    0.92712       .     S
C69   C70    1.39348       .     S
C70   C69    1.39348       .     S
C69   H82    0.94292       .     S
H82   C69    0.94292       .     S
C70   C71    1.39722       .     S
C71   C70    1.39722       .     S
C71   C72    1.38935       .     S
C72   C71    1.38935       .     S
C71   H83    0.96360       .     S
H83   C71    0.96360       .     S
C72   H84    0.97805       .     S
H84   C72    0.97805       .     S
H86   N100   0.87483       .     S
N100  H86    0.87483       .     S
N87   C89    1.31812       .     S
C89   N87    1.31812       .     S
N87   H95    0.87680       .     S
H95   N87    0.87680       .     S
N87   H98    0.86933       .     S
H98   N87    0.86933       .     S
N88   C89    1.30593       .     S
C89   N88    1.30593       .     S
N88   H96    0.86761       .     S
H96   N88    0.86761       .     S
N88   H97    0.87483       .     S
H97   N88    0.87483       .     S
C89   C90    1.47995       .     S
C90   C89    1.47995       .     S
C90   C91    1.38685   1_545     S
C91   C90    1.38685   1_565     S
C90   C92    1.39387       .     S
C92   C90    1.39387       .     S
C91   H93    0.94531       .     S
H93   C91    0.94531       .     S
C91   C104   1.38591   1_455     S
C104  C91    1.38591   1_655     S
C92   H94    0.95473       .     S
H94   C92    0.95473       .     S
C92   C103   1.38591   1_455     S
C103  C92    1.38591   1_655     S
N99   C101   1.31812       .     S
C101  N99    1.31812       .     S
N99   H107   0.87680       .     S
H107  N99    0.87680       .     S
N99   H109   0.86933       .     S
H109  N99    0.86933       .     S
N100  C101   1.30593       .     S
C101  N100   1.30593       .     S
N100  H108   0.86761       .     S
H108  N100   0.86761       .     S
C101  C102   1.47996       .     S
C102  C101   1.47996       .     S
C102  C103   1.38685   1_565     S
C103  C102   1.38685   1_545     S
C102  C104   1.39387       .     S
C104  C102   1.39387       .     S
C103  H105   0.94531       .     S
H105  C103   0.94531       .     S
C104  H106   0.95473       .     S
H106  C104   0.95473       .     S
O110  C136   1.25918       .     S
C136  O110   1.25918       .     S
N111  C112   1.36893       .     S
C112  N111   1.36893       .     S
N111  C115   1.37002       .     S
C115  N111   1.37002       .     S
C112  C113   1.45680       .     S
C113  C112   1.45680       .     S
C112  C134   1.40965       .     S
C134  C112   1.40965       .     S
C113  C114   1.34758       .     S
C114  C113   1.34758       .     S
C113  H170   0.94572       .     S
H170  C113   0.94572       .     S
C114  C115   1.45386       .     S
C115  C114   1.45386       .     S
C114  H171   0.98110       .     S
H171  C114   0.98110       .     S
C115  C116   1.40233       .     S
C116  C115   1.40233       .     S
C116  C118   1.40557       .     S
C118  C116   1.40557       .     S
C116  C167   1.49735       .     S
C167  C116   1.49735       .     S
N117  C118   1.38076       .     S
C118  N117   1.38076       .     S
N117  C121   1.37645   1_554     S
C121  N117   1.37645   1_556     S
N117  H194   0.87034       .     S
H194  N117   0.87034       .     S
C118  C119   1.43124       .     S
C119  C118   1.43124       .     S
C119  C120   1.36565   1_554     S
C120  C119   1.36564   1_556     S
C119  H172   0.95172       .     S
H172  C119   0.95172       .     S
C120  C121   1.42945       .     S
C121  C120   1.42945       .     S
C120  H173   0.91620       .     S
H173  C120   0.91620       .     S
C121  C122   1.40564       .     S
C122  C121   1.40564       .     S
C122  C124   1.40104       .     S
C124  C122   1.40104       .     S
C122  C158   1.48422       .     S
C158  C122   1.48422       .     S
N123  C124   1.36739       .     S
C124  N123   1.36739       .     S
N123  C127   1.36866       .     S
C127  N123   1.36866       .     S
C124  C125   1.46315       .     S
C125  C124   1.46315       .     S
C125  C126   1.35139       .     S
C126  C125   1.35139       .     S
C125  H174   0.95816       .     S
H174  C125   0.95816       .     S
C126  C127   1.46361       .     S
C127  C126   1.46361       .     S
C126  H175   0.97984   1_565     S
H175  C126   0.97984   1_545     S
C127  C128   1.40419       .     S
C128  C127   1.40419       .     S
C128  C130   1.39605   1_556     S
C130  C128   1.39605   1_554     S
C128  C149   1.48749   1_565     S
C149  C128   1.48749   1_545     S
N129  C130   1.37200       .     S
C130  N129   1.37200       .     S
N129  C133   1.37200       .     S
C133  N129   1.37200       .     S
N129  H195   0.87186       .     S
H195  N129   0.87186       .     S
C130  C131   1.42710       .     S
C131  C130   1.42710       .     S
C131  C132   1.36263       .     S
C132  C131   1.36263       .     S
C131  H176   0.95187       .     S
H176  C131   0.95187       .     S
C132  C133   1.43172       .     S
C133  C132   1.43172       .     S
C132  H177   0.93445       .     S
H177  C132   0.93445       .     S
C133  C134   1.39701       .     S
C134  C133   1.39701       .     S
C134  C140   1.50066       .     S
C140  C134   1.50066       .     S
O135  C136   1.25159   1_545     S
C136  O135   1.25159   1_565     S
C136  C137   1.51133       .     S
C137  C136   1.51133       .     S
C137  C138   1.39214       .     S
C138  C137   1.39214       .     S
C137  C142   1.38390       .     S
C142  C137   1.38390       .     S
C138  C139   1.39402       .     S
C139  C138   1.39402       .     S
C138  H178   0.94406       .     S
H178  C138   0.94406       .     S
C139  C140   1.39905       .     S
C140  C139   1.39905       .     S
C139  H179   0.95241       .     S
H179  C139   0.95241       .     S
C140  C141   1.39614       .     S
C141  C140   1.39614       .     S
C141  C142   1.39040       .     S
C142  C141   1.39040       .     S
C141  H180   0.93665   1_565     S
H180  C141   0.93665   1_545     S
C142  H181   0.95302   1_565     S
H181  C142   0.95302   1_545     S
O143  C145   1.25253       .     S
C145  O143   1.25253       .     S
O144  C145   1.25947       .     S
C145  O144   1.25947       .     S
C145  C146   1.50557       .     S
C146  C145   1.50557       .     S
C146  C147   1.38895       .     S
C147  C146   1.38895       .     S
C146  C151   1.39380       .     S
C151  C146   1.39380       .     S
C147  C148   1.39071       .     S
C148  C147   1.39071       .     S
C147  H182   0.93095       .     S
H182  C147   0.93095       .     S
C148  C149   1.39394       .     S
C149  C148   1.39394       .     S
C148  H183   0.95973       .     S
H183  C148   0.95973       .     S
C149  C150   1.39765   1_545     S
C150  C149   1.39765   1_565     S
C150  C151   1.38699   1_565     S
C151  C150   1.38699   1_545     S
C150  H184   0.96068       .     S
H184  C150   0.96068       .     S
C151  H185   0.95290       .     S
H185  C151   0.95290       .     S
O152  C154   1.24952       .     S
C154  O152   1.24952       .     S
O153  C154   1.25381       .     S
C154  O153   1.25381       .     S
C154  C155   1.48654       .     S
C155  C154   1.48654       .     S
C155  C156   1.39750       .     S
C156  C155   1.39750       .     S
C155  C160   1.39039       .     S
C160  C155   1.39039       .     S
C156  C157   1.39459       .     S
C157  C156   1.39459       .     S
C156  H186   0.91966       .     S
H186  C156   0.91966       .     S
C157  C158   1.39945       .     S
C158  C157   1.39945       .     S
C157  H187   0.96604       .     S
H187  C157   0.96604       .     S
C158  C159   1.39611       .     S
C159  C158   1.39611       .     S
C159  C160   1.38669       .     S
C160  C159   1.38669       .     S
C159  H188   0.96885       .     S
H188  C159   0.96885       .     S
C160  H189   0.93872       .     S
H189  C160   0.93872       .     S
O161  C163   1.25454       .     S
C163  O161   1.25454       .     S
O162  C163   1.26115       .     S
C163  O162   1.26115       .     S
C163  C164   1.50604       .     S
C164  C163   1.50604       .     S
C164  C165   1.38891       .     S
C165  C164   1.38891       .     S
C164  C169   1.39693       .     S
C169  C164   1.39693       .     S
C165  C166   1.39621       .     S
C166  C165   1.39621       .     S
C165  H190   0.97858       .     S
H190  C165   0.97858       .     S
C166  C167   1.39405       .     S
C167  C166   1.39405       .     S
C166  H191   0.95828       .     S
H191  C166   0.95828       .     S
C167  C168   1.39590       .     S
C168  C167   1.39590       .     S
C168  C169   1.38904       .     S
C169  C168   1.38904       .     S
C168  H192   0.94382       .     S
H192  C168   0.94382       .     S
C169  H193   0.95934       .     S
H193  C169   0.95934       .     S
N196  C198   1.32982       .     S
C198  N196   1.32982       .     S
N196  H212   0.90187       .     S
H212  N196   0.90187       .     S
N196  H213   0.87959       .     S
H213  N196   0.87959       .     S
N197  C198   1.29531       .     S
C198  N197   1.29531       .     S
N197  H214   0.89352       .     S
H214  N197   0.89352       .     S
N197  H215   0.88137       .     S
H215  N197   0.88137       .     S
C198  C202   1.49905       .     S
C202  C198   1.49905       .     S
N199  C201   1.31669       .     S
C201  N199   1.31669       .     S
N199  H216   0.86847       .     S
H216  N199   0.86847       .     S
N199  H217   0.86465       .     S
H217  N199   0.86465       .     S
N200  C201   1.31963       .     S
C201  N200   1.31963       .     S
N200  H218   0.86206       .     S
H218  N200   0.86206       .     S
N200  H219   0.87209       .     S
H219  N200   0.87209       .     S
C201  C205   1.46578       .     S
C205  C201   1.46578       .     S
C202  C203   1.39549       .     S
C203  C202   1.39549       .     S
C202  C207   1.41640       .     S
C207  C202   1.41640       .     S
C203  C204   1.38470       .     S
C204  C203   1.38470       .     S
C203  H208   0.96701       .     S
H208  C203   0.96701       .     S
C204  C205   1.39626       .     S
C205  C204   1.39626       .     S
C204  H209   0.91960       .     S
H209  C204   0.91960       .     S
C205  C206   1.40051       .     S
C206  C205   1.40051       .     S
C206  C207   1.37845       .     S
C207  C206   1.37845       .     S
C206  H210   0.93881       .     S
H210  C206   0.93881       .     S
C207  H211   0.92999       .     S
H211  C207   0.92999       .     S
H220  N221   0.87063       .     S
N221  H220   0.87063       .     S
N221  C223   1.30593       .     S
C223  N221   1.30593       .     S
N221  H243   0.87423       .     S
H243  N221   0.87423       .     S
N222  C223   1.31567       .     S
C223  N222   1.31567       .     S
N222  H238   0.88019   1_655     S
H238  N222   0.88019   1_455     S
N222  H241   0.86425       .     S
H241  N222   0.86425       .     S
C223  C227   1.48571   1_655     S
C227  C223   1.48571   1_455     S
N224  C226   1.31769       .     S
C226  N224   1.31769       .     S
N224  H240   0.86472       .     S
H240  N224   0.86472       .     S
N224  H242   0.86901       .     S
H242  N224   0.86901       .     S
N225  C226   1.30632       .     S
C226  N225   1.30632       .     S
N225  H237   0.87428       .     S
H237  N225   0.87428       .     S
N225  H239   0.85885       .     S
H239  N225   0.85885       .     S
C226  C230   1.48661       .     S
C230  C226   1.48661       .     S
C227  C228   1.39570       .     S
C228  C227   1.39570       .     S
C227  C232   1.38778       .     S
C232  C227   1.38778       .     S
C228  C229   1.39032       .     S
C229  C228   1.39032       .     S
C228  H233   0.95206       .     S
H233  C228   0.95206       .     S
C229  C230   1.39756       .     S
C230  C229   1.39756       .     S
C229  H234   0.92498       .     S
H234  C229   0.92498       .     S
C230  C231   1.38845       .     S
C231  C230   1.38845       .     S
C231  C232   1.38729       .     S
C232  C231   1.38729       .     S
C231  H235   0.95722       .     S
H235  C231   0.95722       .     S
C232  H236   0.95424   1_455     S
H236  C232   0.95424   1_655     S
N244  C246   1.30929       .     S
C246  N244   1.30929       .     S
N244  H252   0.87944       .     S
H252  N244   0.87944       .     S
N244  H253   0.89116   1_545     S
H253  N244   0.89116   1_565     S
N245  C246   1.31602       .     S
C246  N245   1.31602       .     S
N245  H254   0.87759       .     S
H254  N245   0.87759       .     S
N245  H255   0.87539   1_655     S
H255  N245   0.87539   1_455     S
C246  C247   1.48025       .     S
C247  C246   1.48025       .     S
C247  C248   1.40069   1_645     S
C248  C247   1.40069   1_465     S
C247  C249   1.40091       .     S
C249  C247   1.40091       .     S
C248  H250   0.93228       .     S
H250  C248   0.93228       .     S
C248  C261   1.39334   1_554     S
C261  C248   1.39334   1_556     S
C249  H251   0.95655       .     S
H251  C249   0.95655       .     S
C249  C260   1.39334   1_554     S
C260  C249   1.39334   1_556     S
N256  C258   1.30929       .     S
C258  N256   1.30929       .     S
N256  H264   0.87944       .     S
H264  N256   0.87944       .     S
N256  H265   0.89116   1_565     S
H265  N256   0.89116   1_545     S
N257  C258   1.31602       .     S
C258  N257   1.31602       .     S
N257  H266   0.87759       .     S
H266  N257   0.87759       .     S
N257  H267   0.87538   1_455     S
H267  N257   0.87539   1_655     S
C258  C259   1.48025       .     S
C259  C258   1.48025       .     S
C259  C260   1.40069   1_465     S
C260  C259   1.40069   1_645     S
C259  C261   1.40091       .     S
C261  C259   1.40091       .     S
C260  H262   0.93228       .     S
H262  C260   0.93228       .     S
C261  H263   0.95655       .     S
H263  C261   0.95655       .     S
N1    H43    2.41439   1_556     S
H43   N1     2.41439   1_554     S
N44   H43    2.36435       .     S
H43   N44    2.36435       .     S
N1    H85    2.36435       .     S
H85   N1     2.36435       .     S
N44   H85    2.41439   1_554     S
H85   N44    2.41439   1_556     S
O110  H86    1.87616       .     S
H86   O110   1.87616       .     S
O14   H96    2.00196       .     S
H96   O14    2.00196       .     S
O13   H98    1.95187       .     S
H98   O13    1.95187       .     S
O0    H108   2.00196       .     S
H108  O0     2.00196       .     S
O56   H109   1.95187       .     S
H109  O56    1.95187       .     S
N111  H194   2.35902       .     S
H194  N111   2.35902       .     S
N123  H194   2.35848   1_556     S
H194  N123   2.35848   1_554     S
N111  H195   2.40341       .     S
H195  N111   2.40341       .     S
N123  H195   2.35959   1_556     S
H195  N123   2.35959   1_554     S
O152  H216   2.35458       .     S
H216  O152   2.35458       .     S
O64   H217   2.25299       .     S
H217  O64    2.25299       .     S
O152  H218   2.00778       .     S
H218  O152   2.00778       .     S
O144  H220   1.91870       .     S
H220  O144   1.91870       .     S
O162  H237   2.04572       .     S
H237  O162   2.04572       .     S
O64   H239   2.10735       .     S
H239  O64    2.10735       .     S
O143  H241   1.91463       .     S
H241  O143   1.91463       .     S
O161  H242   1.96624       .     S
H242  O161   1.96624       .     S
C57   O0     1.25020       .     S
O0    C57    1.25020       .     S
C2    N1     1.36618   1_554     S
N1    C2     1.36618   1_556     S
C5    N1     1.36877       .     S
N1    C5     1.36877       .     S
C3    C2     1.44796       .     S
C2    C3     1.44796       .     S
C6    C2     1.40847       .     S
C2    C6     1.40847       .     S
C4    C3     1.35048   1_556     S
C3    C4     1.35048   1_554     S
H31   C3     0.93393       .     S
C3    H31    0.93393       .     S
C5    C4     1.44201       .     S
C4    C5     1.44201       .     S
H32   C4     0.95686       .     S
C4    H32    0.95686       .     S
C55   C5     1.40785       .     S
C5    C55    1.40785       .     S
C11   C6     1.40277       .     S
C6    C11    1.40277       .     S
C19   C6     1.49136       .     S
C6    C19    1.49136       .     S
C8    N7     1.37635       .     S
N7    C8     1.37635       .     S
C11   N7     1.36793       .     S
N7    C11    1.36793       .     S
H43   N7     0.84973       .     S
N7    H43    0.84973       .     S
C9    C8     1.43665       .     S
C8    C9     1.43665       .     S
C12   C8     1.39823       .     S
C8    C12    1.39823       .     S
C10   C9     1.34734       .     S
C9    C10    1.34734       .     S
H33   C9     0.95907       .     S
C9    H33    0.95907       .     S
C11   C10    1.44053       .     S
C10   C11    1.44053       .     S
H34   C10    0.90504       .     S
C10   H34    0.90504       .     S
C28   C12    1.49297       .     S
C12   C28    1.49297       .     S
C48   C12    1.40785       .     S
C12   C48    1.40785       .     S
C15   O13    1.24299       .     S
O13   C15    1.24299       .     S
C15   O14    1.25020       .     S
O14   C15    1.25020       .     S
C16   C15    1.49930       .     S
C15   C16    1.49930       .     S
C17   C16    1.39415       .     S
C16   C17    1.39415       .     S
C21   C16    1.38846       .     S
C16   C21    1.38846       .     S
C18   C17    1.38773       .     S
C17   C18    1.38773       .     S
H35   C17    0.94702       .     S
C17   H35    0.94702       .     S
C19   C18    1.39069       .     S
C18   C19    1.39069       .     S
H36   C18    0.96693       .     S
C18   H36    0.96693       .     S
C20   C19    1.40199       .     S
C19   C20    1.40199       .     S
C21   C20    1.38117       .     S
C20   C21    1.38117       .     S
H37   C20    0.93518       .     S
C20   H37    0.93518       .     S
H38   C21    0.94258       .     S
C21   H38    0.94258       .     S
C24   O22    1.23935       .     S
O22   C24    1.23935       .     S
C24   O23    1.24870       .     S
O23   C24    1.24870       .     S
C25   C24    1.52808       .     S
C24   C25    1.52808       .     S
C26   C25    1.39477       .     S
C25   C26    1.39477       .     S
C30   C25    1.38999       .     S
C25   C30    1.38999       .     S
C27   C26    1.41926       .     S
C26   C27    1.41926       .     S
H39   C26    0.92711       .     S
C26   H39    0.92711       .     S
C28   C27    1.39348       .     S
C27   C28    1.39348       .     S
H40   C27    0.94292       .     S
C27   H40    0.94292       .     S
C29   C28    1.39722       .     S
C28   C29    1.39722       .     S
C30   C29    1.38935       .     S
C29   C30    1.38935       .     S
H41   C29    0.96360       .     S
C29   H41    0.96360       .     S
H42   C30    0.97805       .     S
C30   H42    0.97805       .     S
C45   N44    1.36618   1_556     S
N44   C45    1.36618   1_554     S
C48   N44    1.36877       .     S
N44   C48    1.36877       .     S
C46   C45    1.44796       .     S
C45   C46    1.44796       .     S
C49   C45    1.40847       .     S
C45   C49    1.40847       .     S
C47   C46    1.35048   1_554     S
C46   C47    1.35048   1_556     S
H73   C46    0.93393       .     S
C46   H73    0.93393       .     S
C48   C47    1.44201       .     S
C47   C48    1.44201       .     S
H74   C47    0.95686       .     S
C47   H74    0.95686       .     S
C54   C49    1.40277       .     S
C49   C54    1.40277       .     S
C61   C49    1.49136       .     S
C49   C61    1.49136       .     S
C51   N50    1.37635       .     S
N50   C51    1.37635       .     S
C54   N50    1.36793       .     S
N50   C54    1.36793       .     S
H85   N50    0.84973       .     S
N50   H85    0.84973       .     S
C52   C51    1.43665       .     S
C51   C52    1.43665       .     S
C55   C51    1.39823       .     S
C51   C55    1.39823       .     S
C53   C52    1.34734       .     S
C52   C53    1.34734       .     S
H75   C52    0.95907       .     S
C52   H75    0.95907       .     S
C54   C53    1.44052       .     S
C53   C54    1.44052       .     S
H76   C53    0.90503       .     S
C53   H76    0.90503       .     S
C70   C55    1.49297       .     S
C55   C70    1.49297       .     S
C57   O56    1.24299       .     S
O56   C57    1.24299       .     S
C58   C57    1.49930       .     S
C57   C58    1.49930       .     S
C59   C58    1.39415       .     S
C58   C59    1.39415       .     S
C63   C58    1.38846       .     S
C58   C63    1.38846       .     S
C60   C59    1.38773       .     S
C59   C60    1.38773       .     S
H77   C59    0.94702       .     S
C59   H77    0.94702       .     S
C61   C60    1.39069       .     S
C60   C61    1.39069       .     S
H78   C60    0.96693       .     S
C60   H78    0.96693       .     S
C62   C61    1.40200       .     S
C61   C62    1.40200       .     S
C63   C62    1.38117       .     S
C62   C63    1.38117       .     S
H79   C62    0.93518       .     S
C62   H79    0.93518       .     S
H80   C63    0.94258       .     S
C63   H80    0.94258       .     S
C66   O64    1.23935       .     S
O64   C66    1.23935       .     S
C66   O65    1.24870       .     S
O65   C66    1.24870       .     S
C67   C66    1.52808       .     S
C66   C67    1.52808       .     S
C68   C67    1.39476       .     S
C67   C68    1.39476       .     S
C72   C67    1.38999       .     S
C67   C72    1.38999       .     S
C69   C68    1.41926       .     S
C68   C69    1.41926       .     S
H81   C68    0.92712       .     S
C68   H81    0.92712       .     S
C70   C69    1.39348       .     S
C69   C70    1.39348       .     S
H82   C69    0.94292       .     S
C69   H82    0.94292       .     S
C71   C70    1.39722       .     S
C70   C71    1.39722       .     S
C72   C71    1.38935       .     S
C71   C72    1.38935       .     S
H83   C71    0.96360       .     S
C71   H83    0.96360       .     S
H84   C72    0.97805       .     S
C72   H84    0.97805       .     S
N100  H86    0.87483       .     S
H86   N100   0.87483       .     S
C89   N87    1.31812       .     S
N87   C89    1.31812       .     S
H95   N87    0.87680       .     S
N87   H95    0.87680       .     S
H98   N87    0.86933       .     S
N87   H98    0.86933       .     S
C89   N88    1.30593       .     S
N88   C89    1.30593       .     S
H96   N88    0.86761       .     S
N88   H96    0.86761       .     S
H97   N88    0.87483       .     S
N88   H97    0.87483       .     S
C90   C89    1.47995       .     S
C89   C90    1.47995       .     S
C91   C90    1.38685   1_565     S
C90   C91    1.38685   1_545     S
C92   C90    1.39387       .     S
C90   C92    1.39387       .     S
H93   C91    0.94531       .     S
C91   H93    0.94531       .     S
C104  C91    1.38591   1_655     S
C91   C104   1.38591   1_455     S
H94   C92    0.95473       .     S
C92   H94    0.95473       .     S
C103  C92    1.38591   1_655     S
C92   C103   1.38591   1_455     S
C101  N99    1.31812       .     S
N99   C101   1.31812       .     S
H107  N99    0.87680       .     S
N99   H107   0.87680       .     S
H109  N99    0.86933       .     S
N99   H109   0.86933       .     S
C101  N100   1.30593       .     S
N100  C101   1.30593       .     S
H108  N100   0.86761       .     S
N100  H108   0.86761       .     S
C102  C101   1.47996       .     S
C101  C102   1.47996       .     S
C103  C102   1.38685   1_545     S
C102  C103   1.38685   1_565     S
C104  C102   1.39387       .     S
C102  C104   1.39387       .     S
H105  C103   0.94531       .     S
C103  H105   0.94531       .     S
H106  C104   0.95473       .     S
C104  H106   0.95473       .     S
C136  O110   1.25918       .     S
O110  C136   1.25918       .     S
C112  N111   1.36893       .     S
N111  C112   1.36893       .     S
C115  N111   1.37002       .     S
N111  C115   1.37002       .     S
C113  C112   1.45680       .     S
C112  C113   1.45680       .     S
C134  C112   1.40965       .     S
C112  C134   1.40965       .     S
C114  C113   1.34758       .     S
C113  C114   1.34758       .     S
H170  C113   0.94572       .     S
C113  H170   0.94572       .     S
C115  C114   1.45386       .     S
C114  C115   1.45386       .     S
H171  C114   0.98110       .     S
C114  H171   0.98110       .     S
C116  C115   1.40233       .     S
C115  C116   1.40233       .     S
C118  C116   1.40557       .     S
C116  C118   1.40557       .     S
C167  C116   1.49735       .     S
C116  C167   1.49735       .     S
C118  N117   1.38076       .     S
N117  C118   1.38076       .     S
C121  N117   1.37645   1_556     S
N117  C121   1.37645   1_554     S
H194  N117   0.87034       .     S
N117  H194   0.87034       .     S
C119  C118   1.43124       .     S
C118  C119   1.43124       .     S
C120  C119   1.36564   1_556     S
C119  C120   1.36565   1_554     S
H172  C119   0.95172       .     S
C119  H172   0.95172       .     S
C121  C120   1.42945       .     S
C120  C121   1.42945       .     S
H173  C120   0.91620       .     S
C120  H173   0.91620       .     S
C122  C121   1.40564       .     S
C121  C122   1.40564       .     S
C124  C122   1.40104       .     S
C122  C124   1.40104       .     S
C158  C122   1.48422       .     S
C122  C158   1.48422       .     S
C124  N123   1.36739       .     S
N123  C124   1.36739       .     S
C127  N123   1.36866       .     S
N123  C127   1.36866       .     S
C125  C124   1.46315       .     S
C124  C125   1.46315       .     S
C126  C125   1.35139       .     S
C125  C126   1.35139       .     S
H174  C125   0.95816       .     S
C125  H174   0.95816       .     S
C127  C126   1.46361       .     S
C126  C127   1.46361       .     S
H175  C126   0.97984   1_545     S
C126  H175   0.97984   1_565     S
C128  C127   1.40419       .     S
C127  C128   1.40419       .     S
C130  C128   1.39605   1_554     S
C128  C130   1.39605   1_556     S
C149  C128   1.48749   1_545     S
C128  C149   1.48749   1_565     S
C130  N129   1.37200       .     S
N129  C130   1.37200       .     S
C133  N129   1.37200       .     S
N129  C133   1.37200       .     S
H195  N129   0.87186       .     S
N129  H195   0.87186       .     S
C131  C130   1.42710       .     S
C130  C131   1.42710       .     S
C132  C131   1.36263       .     S
C131  C132   1.36263       .     S
H176  C131   0.95187       .     S
C131  H176   0.95187       .     S
C133  C132   1.43172       .     S
C132  C133   1.43172       .     S
H177  C132   0.93445       .     S
C132  H177   0.93445       .     S
C134  C133   1.39701       .     S
C133  C134   1.39701       .     S
C140  C134   1.50066       .     S
C134  C140   1.50066       .     S
C136  O135   1.25159   1_565     S
O135  C136   1.25159   1_545     S
C137  C136   1.51133       .     S
C136  C137   1.51133       .     S
C138  C137   1.39214       .     S
C137  C138   1.39214       .     S
C142  C137   1.38390       .     S
C137  C142   1.38390       .     S
C139  C138   1.39402       .     S
C138  C139   1.39402       .     S
H178  C138   0.94406       .     S
C138  H178   0.94406       .     S
C140  C139   1.39905       .     S
C139  C140   1.39905       .     S
H179  C139   0.95241       .     S
C139  H179   0.95241       .     S
C141  C140   1.39614       .     S
C140  C141   1.39614       .     S
C142  C141   1.39040       .     S
C141  C142   1.39040       .     S
H180  C141   0.93665   1_545     S
C141  H180   0.93665   1_565     S
H181  C142   0.95302   1_545     S
C142  H181   0.95302   1_565     S
C145  O143   1.25253       .     S
O143  C145   1.25253       .     S
C145  O144   1.25947       .     S
O144  C145   1.25947       .     S
C146  C145   1.50557       .     S
C145  C146   1.50557       .     S
C147  C146   1.38895       .     S
C146  C147   1.38895       .     S
C151  C146   1.39380       .     S
C146  C151   1.39380       .     S
C148  C147   1.39071       .     S
C147  C148   1.39071       .     S
H182  C147   0.93095       .     S
C147  H182   0.93095       .     S
C149  C148   1.39394       .     S
C148  C149   1.39394       .     S
H183  C148   0.95973       .     S
C148  H183   0.95973       .     S
C150  C149   1.39765   1_565     S
C149  C150   1.39765   1_545     S
C151  C150   1.38699   1_545     S
C150  C151   1.38699   1_565     S
H184  C150   0.96068       .     S
C150  H184   0.96068       .     S
H185  C151   0.95290       .     S
C151  H185   0.95290       .     S
C154  O152   1.24952       .     S
O152  C154   1.24952       .     S
C154  O153   1.25381       .     S
O153  C154   1.25381       .     S
C155  C154   1.48654       .     S
C154  C155   1.48654       .     S
C156  C155   1.39750       .     S
C155  C156   1.39750       .     S
C160  C155   1.39039       .     S
C155  C160   1.39039       .     S
C157  C156   1.39459       .     S
C156  C157   1.39459       .     S
H186  C156   0.91966       .     S
C156  H186   0.91966       .     S
C158  C157   1.39945       .     S
C157  C158   1.39945       .     S
H187  C157   0.96604       .     S
C157  H187   0.96604       .     S
C159  C158   1.39611       .     S
C158  C159   1.39611       .     S
C160  C159   1.38669       .     S
C159  C160   1.38669       .     S
H188  C159   0.96885       .     S
C159  H188   0.96885       .     S
H189  C160   0.93872       .     S
C160  H189   0.93872       .     S
C163  O161   1.25454       .     S
O161  C163   1.25454       .     S
C163  O162   1.26115       .     S
O162  C163   1.26115       .     S
C164  C163   1.50604       .     S
C163  C164   1.50604       .     S
C165  C164   1.38891       .     S
C164  C165   1.38891       .     S
C169  C164   1.39693       .     S
C164  C169   1.39693       .     S
C166  C165   1.39621       .     S
C165  C166   1.39621       .     S
H190  C165   0.97858       .     S
C165  H190   0.97858       .     S
C167  C166   1.39405       .     S
C166  C167   1.39405       .     S
H191  C166   0.95828       .     S
C166  H191   0.95828       .     S
C168  C167   1.39590       .     S
C167  C168   1.39590       .     S
C169  C168   1.38904       .     S
C168  C169   1.38904       .     S
H192  C168   0.94382       .     S
C168  H192   0.94382       .     S
H193  C169   0.95934       .     S
C169  H193   0.95934       .     S
C198  N196   1.32982       .     S
N196  C198   1.32982       .     S
H212  N196   0.90187       .     S
N196  H212   0.90187       .     S
H213  N196   0.87959       .     S
N196  H213   0.87959       .     S
C198  N197   1.29531       .     S
N197  C198   1.29531       .     S
H214  N197   0.89352       .     S
N197  H214   0.89352       .     S
H215  N197   0.88137       .     S
N197  H215   0.88137       .     S
C202  C198   1.49905       .     S
C198  C202   1.49905       .     S
C201  N199   1.31669       .     S
N199  C201   1.31669       .     S
H216  N199   0.86847       .     S
N199  H216   0.86847       .     S
H217  N199   0.86465       .     S
N199  H217   0.86465       .     S
C201  N200   1.31963       .     S
N200  C201   1.31963       .     S
H218  N200   0.86206       .     S
N200  H218   0.86206       .     S
H219  N200   0.87209       .     S
N200  H219   0.87209       .     S
C205  C201   1.46578       .     S
C201  C205   1.46578       .     S
C203  C202   1.39549       .     S
C202  C203   1.39549       .     S
C207  C202   1.41640       .     S
C202  C207   1.41640       .     S
C204  C203   1.38470       .     S
C203  C204   1.38470       .     S
H208  C203   0.96701       .     S
C203  H208   0.96701       .     S
C205  C204   1.39626       .     S
C204  C205   1.39626       .     S
H209  C204   0.91960       .     S
C204  H209   0.91960       .     S
C206  C205   1.40051       .     S
C205  C206   1.40051       .     S
C207  C206   1.37845       .     S
C206  C207   1.37845       .     S
H210  C206   0.93881       .     S
C206  H210   0.93881       .     S
H211  C207   0.92999       .     S
C207  H211   0.92999       .     S
N221  H220   0.87063       .     S
H220  N221   0.87063       .     S
C223  N221   1.30593       .     S
N221  C223   1.30593       .     S
H243  N221   0.87423       .     S
N221  H243   0.87423       .     S
C223  N222   1.31567       .     S
N222  C223   1.31567       .     S
H238  N222   0.88019   1_455     S
N222  H238   0.88019   1_655     S
H241  N222   0.86425       .     S
N222  H241   0.86425       .     S
C227  C223   1.48571   1_455     S
C223  C227   1.48571   1_655     S
C226  N224   1.31769       .     S
N224  C226   1.31769       .     S
H240  N224   0.86472       .     S
N224  H240   0.86472       .     S
H242  N224   0.86901       .     S
N224  H242   0.86901       .     S
C226  N225   1.30632       .     S
N225  C226   1.30632       .     S
H237  N225   0.87428       .     S
N225  H237   0.87428       .     S
H239  N225   0.85885       .     S
N225  H239   0.85885       .     S
C230  C226   1.48661       .     S
C226  C230   1.48661       .     S
C228  C227   1.39570       .     S
C227  C228   1.39570       .     S
C232  C227   1.38778       .     S
C227  C232   1.38778       .     S
C229  C228   1.39032       .     S
C228  C229   1.39032       .     S
H233  C228   0.95206       .     S
C228  H233   0.95206       .     S
C230  C229   1.39756       .     S
C229  C230   1.39756       .     S
H234  C229   0.92498       .     S
C229  H234   0.92498       .     S
C231  C230   1.38845       .     S
C230  C231   1.38845       .     S
C232  C231   1.38729       .     S
C231  C232   1.38729       .     S
H235  C231   0.95722       .     S
C231  H235   0.95722       .     S
H236  C232   0.95424   1_655     S
C232  H236   0.95424   1_455     S
C246  N244   1.30929       .     S
N244  C246   1.30929       .     S
H252  N244   0.87944       .     S
N244  H252   0.87944       .     S
H253  N244   0.89116   1_565     S
N244  H253   0.89116   1_545     S
C246  N245   1.31602       .     S
N245  C246   1.31602       .     S
H254  N245   0.87759       .     S
N245  H254   0.87759       .     S
H255  N245   0.87539   1_455     S
N245  H255   0.87539   1_655     S
C247  C246   1.48025       .     S
C246  C247   1.48025       .     S
C248  C247   1.40069   1_465     S
C247  C248   1.40069   1_645     S
C249  C247   1.40091       .     S
C247  C249   1.40091       .     S
H250  C248   0.93228       .     S
C248  H250   0.93228       .     S
C261  C248   1.39334   1_556     S
C248  C261   1.39334   1_554     S
H251  C249   0.95655       .     S
C249  H251   0.95655       .     S
C260  C249   1.39334   1_556     S
C249  C260   1.39334   1_554     S
C258  N256   1.30929       .     S
N256  C258   1.30929       .     S
H264  N256   0.87944       .     S
N256  H264   0.87944       .     S
H265  N256   0.89116   1_545     S
N256  H265   0.89116   1_565     S
C258  N257   1.31602       .     S
N257  C258   1.31602       .     S
H266  N257   0.87759       .     S
N257  H266   0.87759       .     S
H267  N257   0.87539   1_655     S
N257  H267   0.87538   1_455     S
C259  C258   1.48025       .     S
C258  C259   1.48025       .     S
C260  C259   1.40069   1_645     S
C259  C260   1.40069   1_465     S
C261  C259   1.40091       .     S
C259  C261   1.40091       .     S
H262  C260   0.93228       .     S
C260  H262   0.93228       .     S
H263  C261   0.95655       .     S
C261  H263   0.95655       .     S
