data_I
_chemical_name_common  '/data/user2/wty/HOF/MOFDiff/mofdiff/data/test/2_g4tbbs'
_cell_length_a 12.37650
_cell_length_b 22.11400
_cell_length_c 56.38500
_cell_angle_alpha 90.00000
_cell_angle_beta  90.00000
_cell_angle_gamma 90.00000
_space_group_name_H-M_alt      'P 1'


loop_
_space_group_symop_operation_xyz
  'x, y, z' 

loop_
_atom_site_label
_atom_site_fract_x
_atom_site_fract_y
_atom_site_fract_z
_atom_site_type_symbol
N0      0.5245   0.5775  0.13947     N
H1      0.5946   0.5837   0.1405     H
H2      0.4873   0.5937   0.1278     H
N3      0.3673   0.5357  0.15331     N
H4       0.332   0.5136   0.1637     H
H5      0.3325   0.5525   0.1414     H
N6      0.5286    0.519  0.17323     N
H7      0.5987   0.5248   0.1745     H
H8      0.4944   0.4968   0.1838     H
C9      0.4749   0.5437  0.15557     C
N10     0.1531   0.1149   0.9982     N
H11     0.0859   0.1178   0.9932     H
H12      0.186   0.0796   0.9982     H
N13      0.157   0.2176  0.00587     N
H14     0.0898   0.2211    0.001     H
H15     0.1924   0.2496   0.0109     H
N16     0.3052   0.1587  0.01417     N
H17     0.3389   0.1906   0.0198     H
H18     0.3375   0.1232   0.0141     H
C19     0.2051    0.164  0.00571     C
S20    0.30819  0.44758  0.21232     S
O21     0.2525   0.4743  0.19228     O
O22     0.4255   0.4571  0.21189     O
O23     0.2603   0.4666  0.23494     O
C24     0.2888   0.3686  0.21028     C
C25     0.3739    0.329  0.21173     C
H26     0.4455   0.3441   0.2132     H
C27     0.3559   0.2681  0.21113     C
H28     0.4161   0.2416   0.2122     H
C29     0.2536   0.2434  0.20895     C
C30     0.1706   0.2837   0.2073     C
H31     0.0989   0.2688   0.2057     H
C32     0.1872   0.3452   0.2077     C
H33     0.1273   0.3717   0.2062     H
C34     0.2386   0.1741   0.2079     C
C35     0.1205   0.1575   0.2056     C
H36     0.0876   0.1824   0.1937     H
H37      0.085    0.164   0.2205     H
H38      0.114   0.1157   0.2011     H
C39     0.2877   0.1462  0.23092     C
H40      0.277   0.1032   0.2309     H
H41     0.2532   0.1634   0.2446     H
H42     0.3637   0.1549   0.2314     H
C43     0.2985   0.1483  0.18691     C
H44     0.2877   0.1053   0.1862     H
H45     0.3742   0.1567   0.1886     H
H46     0.2721   0.1666   0.1726     H
O47     0.4186   0.0461  0.01913     O
H48     0.4813   0.0458   0.0253     H
H49     0.3809   0.0126   0.0197     H
S50    0.72875  0.01548  0.04296     S
O51     0.7928   0.0124  0.02107     O
O52     0.6237   0.0446  0.03931     O
O53     0.7894   0.0429  0.06226     O
C54     0.7054   0.9397  0.05112     C
C55     0.6169   0.9091  0.04181     C
H56     0.5651   0.9302   0.0325     H
C57     0.6046   0.8485  0.04614     C
H58     0.5425   0.8285   0.0401     H
C59     0.6794    0.815  0.05909     C
C60     0.7671   0.8474  0.06854     C
H61     0.8189   0.8266   0.0779     H
C62     0.7802   0.9084  0.06463     C
H63     0.8405    0.929   0.0712     H
C64     0.6688    0.748  0.06347     C
C65     0.6457   0.7358   0.0894     C
H66     0.7077   0.7465   0.0988     H
H67     0.6303   0.6936   0.0915     H
H68     0.5846   0.7592   0.0945     H
C69     0.7738   0.7151   0.0561     C
H70     0.7875   0.7222   0.0395     H
H71     0.7654   0.6725   0.0588     H
H72     0.8334     0.73   0.0653     H
C73     0.5754   0.7205    0.049     C
H74     0.5095   0.7415   0.0526     H
H75     0.5678   0.6785    0.053     H
H76     0.5908   0.7243   0.0324     H
N77      0.995   0.0996  0.42129     N
H78     0.9269   0.1109    0.422     H
H79     0.0304   0.0909   0.4344     H
N80     0.1481   0.0795  0.39918     N
H81     0.1806   0.0776   0.3853     H
H82     0.1839   0.0708   0.4122     H
N83     0.9911   0.1085   0.3806     N
H84      0.923   0.1198   0.3813     H
H85      0.024   0.1058   0.3668     H
C86     0.0443   0.0955   0.4004     C
S87    0.19725  0.09594  0.33074     S
O88     0.2475   0.0893  0.35408     O
O89     0.0794   0.0897  0.33152     O
O90     0.2464   0.0563   0.3132     O
C91     0.2238   0.1704  0.32185     C
C92     0.2914   0.2078   0.3343     C
H93     0.3237   0.1934   0.3485     H
C94     0.3136   0.2653   0.3268     C
H95      0.361   0.2898   0.3359     H
C96     0.2689   0.2884  0.30641     C
C97     0.2018   0.2507   0.2936     C
H98     0.1712   0.2646   0.2791     H
C99     0.1782   0.1928  0.30152     C
H100    0.1297   0.1683   0.2927     H
C101    0.2944   0.3517  0.29686     C
C102    0.3564   0.3896  0.31552     C
H103    0.3626   0.4306   0.3101     H
H104    0.3181   0.3889   0.3303     H
H105    0.4273   0.3729   0.3177     H
C106    0.1916   0.3862  0.29046     C
H107    0.1577    0.367   0.2771     H
H108    0.1429    0.386   0.3037     H
H109    0.2094   0.4272   0.2864     H
C110    0.3674   0.3464  0.27523     C
H111    0.3298   0.3251   0.2629     H
H112    0.3867    0.386   0.2697     H
H113    0.4316   0.3245   0.2795     H
S114   0.38925  0.31981   0.0285     S
O115    0.2713   0.3176  0.02766     O
O116    0.4331    0.375  0.01798     O
O117    0.4391   0.2649  0.01868     O
C118    0.4236    0.321  0.05869     C
C119     0.447   0.2683  0.07127     C
H120    0.4477   0.2305   0.0633     H
C121    0.4689   0.2707  0.09511     C
H122    0.4826   0.2339   0.1033     H
C123    0.4717   0.3242   0.1077     C
C124     0.447    0.377  0.09503     C
H125    0.4464   0.4146   0.1031     H
C126    0.4235   0.3758  0.07105     C
H127    0.4072   0.4123    0.063     H
C128    0.5021   0.3269  0.13372     C
C129    0.6106   0.3614   0.1363     C
H130    0.6054   0.3997   0.1285     H
H131    0.6679   0.3381   0.1294     H
H132    0.6256   0.3677   0.1529     H
C133    0.4217   0.3658  0.14781     C
H134    0.3524   0.3463   0.1478     H
H135    0.4154    0.405   0.1406     H
H136    0.4467   0.3702   0.1638     H
C137    0.5143   0.2672  0.14511     C
H138    0.5398   0.2722   0.1611     H
H139    0.5653   0.2435   0.1363     H
H140    0.4457    0.247   0.1453     H
N141    0.5333   0.5224  0.29513     N
H142    0.6015   0.5121    0.297     H
H143    0.4977   0.5396   0.3068     H
N144    0.3802   0.5272  0.27184     N
H145    0.3466   0.5203   0.2584     H
H146    0.3455   0.5444   0.2837     H
N147    0.5363   0.4859   0.2567     N
H148    0.5032   0.4788   0.2432     H
H149    0.6046   0.4758   0.2585     H
C150    0.4835   0.5117  0.27433     C
N151     0.032   0.9996  0.02823     N
H152    0.9624   0.0021   0.0252     H
H153    0.0726   0.9742   0.0202     H
N154    0.1823   0.0296  0.04937     N
H155    0.2117   0.0522   0.0605     H
H156    0.2225   0.0041   0.0413     H
N157    0.0158   0.0718  0.05687     N
H158    0.9461   0.0746   0.0539     H
H159    0.0453   0.0946   0.0679     H
C160    0.0756   0.0339   0.0448     C
O161    0.2959   0.9403   0.0204     O
H162    0.3116   0.9184   0.0085     H
H163    0.3098   0.9212   0.0331     H
S164   0.20376  0.14315  0.10211     S
O165    0.0973   0.1139  0.09999     O
O166    0.2679   0.1347  0.08069     O
O167    0.2592   0.1245  0.12403     O
C168     0.177   0.2209  0.10505     C
C169    0.1432   0.2438  0.12663     C
H170    0.1391   0.2178     0.14     H
C171    0.1155   0.3034  0.12904     C
H172    0.0913    0.318    0.144     H
C173    0.1225   0.3433  0.10962     C
C174    0.1568   0.3197   0.0885     C
H175    0.1617   0.3455   0.0751     H
C176    0.1848   0.2592  0.08614     C
H177    0.2096   0.2444   0.0713     H
C178    0.0883   0.4106  0.11276     C
C179    0.1278   0.4355    0.137     C
H180    0.1147   0.4782   0.1376     H
H181    0.2039   0.4279   0.1386     H
H182    0.0896   0.4158   0.1496     H
C183    0.9652   0.4128   0.1126     C
H184    0.9372   0.3835   0.1235     H
H185    0.9395   0.4038   0.0969     H
H186    0.9414   0.4524   0.1171     H
C187    0.1305    0.449   0.0927     C
H188    0.1214   0.4279   0.0779     H
H189    0.2059    0.457   0.0952     H
H190    0.0914   0.4864   0.0922     H
loop_
_geom_bond_atom_site_label_1
_geom_bond_atom_site_label_2
_geom_bond_distance
_geom_bond_site_symmetry_2
_ccdc_geom_bond_type
H4    O21    2.07853       .     S
O21   H4     2.07853       .     S
H8    O22    2.00163       .     S
O22   H8     2.00163       .     S
H15   O115   2.02679       .     S
O115  H15    2.02679       .     S
H17   O117   2.05951       .     S
O117  H17    2.05951       .     S
H18   O47    1.99873       .     S
O47   H18    1.99873       .     S
H48   O52    1.93154       .     S
O52   H48    1.93154       .     S
H49   O161   1.91431   1_545     S
O161  H49    1.91431   1_565     S
H81   O88    1.96247       .     S
O88   H81    1.96247       .     S
H85   O89    2.13402       .     S
O89   H85    2.13402       .     S
H145  O23    2.07384       .     S
O23   H145   2.07384       .     S
H148  O22    2.06682       .     S
O22   H148   2.06682       .     S
H152  O51    2.12418       .     S
O51   H152   2.12418       .     S
H155  O166   2.26014       .     S
O166  H155   2.26014       .     S
H156  O161   2.05050   1_545     S
O161  H156   2.05050   1_565     S
H158  O53    2.11539       .     S
O53   H158   2.11539       .     S
H159  O165   1.96730       .     S
O165  H159   1.96730       .     S
N0    H1     0.88028       .     S
H1    N0     0.88028       .     S
N0    H2     0.87937       .     S
H2    N0     0.87937       .     S
N0    C9     1.32651       .     S
C9    N0     1.32651       .     S
N3    H4     0.87916       .     S
H4    N3     0.87916       .     S
N3    H5     0.88006       .     S
H5    N3     0.88006       .     S
N3    C9     1.34944       .     S
C9    N3     1.34944       .     S
N6    H7     0.87994       .     S
H7    N6     0.87994       .     S
N6    H8     0.88056       .     S
H8    N6     0.88056       .     S
N6    C9     1.31590       .     S
C9    N6     1.31590       .     S
N10   H11    0.88052       .     S
H11   N10    0.88052       .     S
N10   H12    0.88044       .     S
H12   N10    0.88044       .     S
N10   C19    1.33134   1_556     S
C19   N10    1.33134   1_554     S
N13   H14    0.87927       .     S
H14   N13    0.87927       .     S
N13   H15    0.87929       .     S
H15   N13    0.87929       .     S
N13   C19    1.32644       .     S
C19   N13    1.32644       .     S
N16   H17    0.87885       .     S
H17   N16    0.87885       .     S
N16   H18    0.88098       .     S
H18   N16    0.88098       .     S
N16   C19    1.33271       .     S
C19   N16    1.33271       .     S
S20   O21    1.44949       .     S
O21   S20    1.44949       .     S
S20   O22    1.46727       .     S
O22   S20    1.46727       .     S
S20   O23    1.46797       .     S
O23   S20    1.46797       .     S
S20   C24    1.76672       .     S
C24   S20    1.76672       .     S
C24   C25    1.37218       .     S
C25   C24    1.37218       .     S
C24   C32    1.36752       .     S
C32   C24    1.36752       .     S
C25   H26    0.95060       .     S
H26   C25    0.95060       .     S
C25   C27    1.36546       .     S
C27   C25    1.36546       .     S
C27   H28    0.94983       .     S
H28   C27    0.94983       .     S
C27   C29    1.38438       .     S
C29   C27    1.38438       .     S
C29   C30    1.36313       .     S
C30   C29    1.36313       .     S
C29   C34    1.54484       .     S
C34   C29    1.54484       .     S
C30   H31    0.95088       .     S
H31   C30    0.95088       .     S
C30   C32    1.37563       .     S
C32   C30    1.37563       .     S
C32   H33    0.94878       .     S
H33   C32    0.94878       .     S
C34   C35    1.51263       .     S
C35   C34    1.51263       .     S
C34   C39    1.56035       .     S
C39   C34    1.56035       .     S
C34   C43    1.50859       .     S
C43   C34    1.50859       .     S
C35   H36    0.95876       .     S
H36   C35    0.95876       .     S
C35   H37    0.95892       .     S
H37   C35    0.95892       .     S
C35   H38    0.96193       .     S
H38   C35    0.96193       .     S
C39   H40    0.96008       .     S
H40   C39    0.96008       .     S
C39   H41    0.96019       .     S
H41   C39    0.96019       .     S
C39   H42    0.96047       .     S
H42   C39    0.96047       .     S
C43   H44    0.96108       .     S
H44   C43    0.96108       .     S
C43   H45    0.95988       .     S
H45   C43    0.95988       .     S
C43   H46    0.95998       .     S
H46   C43    0.95998       .     S
O47   H48    0.85045       .     S
H48   O47    0.85045       .     S
O47   H49    0.87610       .     S
H49   O47    0.87610       .     S
S50   O51    1.46849       .     S
O51   S50    1.46849       .     S
S50   O52    1.46541       .     S
O52   S50    1.46541       .     S
S50   O53    1.45443       .     S
O53   S50    1.45443       .     S
S50   C54    1.76168   1_545     S
C54   S50    1.76168   1_565     S
C54   C55    1.39040       .     S
C55   C54    1.39040       .     S
C54   C62    1.38435       .     S
C62   C54    1.38435       .     S
C55   H56    0.95095       .     S
H56   C55    0.95095       .     S
C55   C57    1.37065       .     S
C57   C55    1.37065       .     S
C57   H58    0.94990       .     S
H58   C57    0.94990       .     S
C57   C59    1.39249       .     S
C59   C57    1.39249       .     S
C59   C60    1.40549       .     S
C60   C59    1.40549       .     S
C59   C64    1.50780       .     S
C64   C59    1.50780       .     S
C60   H61    0.94927       .     S
H61   C60    0.94927       .     S
C60   C62    1.37643       .     S
C62   C60    1.37643       .     S
C62   H63    0.94959       .     S
H63   C62    0.94959       .     S
C64   C65    1.51399       .     S
C65   C64    1.51399       .     S
C64   C69    1.54622       .     S
C69   C64    1.54622       .     S
C64   C73    1.54005       .     S
C73   C64    1.54005       .     S
C65   H66    0.96215       .     S
H66   C65    0.96215       .     S
C65   H67    0.95981       .     S
H67   C65    0.95981       .     S
C65   H68    0.96037       .     S
H68   C65    0.96037       .     S
C69   H70    0.96410       .     S
H70   C69    0.96410       .     S
C69   H71    0.95992       .     S
H71   C69    0.95992       .     S
C69   H72    0.96009       .     S
H72   C69    0.96009       .     S
C73   H74    0.96025       .     S
H74   C73    0.96025       .     S
C73   H75    0.96040       .     S
H75   C73    0.96040       .     S
C73   H76    0.95889       .     S
H76   C73    0.95889       .     S
N77   H78    0.88001       .     S
H78   N77    0.88001       .     S
N77   H79    0.88057   1_655     S
H79   N77    0.88057   1_455     S
N77   C86    1.32963   1_655     S
C86   N77    1.32963   1_455     S
N80   H81    0.88094       .     S
H81   N80    0.88094       .     S
N80   H82    0.87880       .     S
H82   N80    0.87880       .     S
N80   C86    1.33429       .     S
C86   N80    1.33429       .     S
N83   H84    0.87999       .     S
H84   N83    0.87999       .     S
N83   H85    0.88024   1_655     S
H85   N83    0.88024   1_455     S
N83   C86    1.32762   1_655     S
C86   N83    1.32762   1_455     S
S87   O88    1.46296       .     S
O88   S87    1.46296       .     S
S87   O89    1.46574       .     S
O89   S87    1.46574       .     S
S87   O90    1.45484       .     S
O90   S87    1.45484       .     S
S87   C91    1.75230       .     S
C91   S87    1.75230       .     S
C91   C92    1.36997       .     S
C92   C91    1.36997       .     S
C91   C99    1.37037       .     S
C99   C91    1.37037       .     S
C92   H93    0.94989       .     S
H93   C92    0.94989       .     S
C92   C94    1.36791       .     S
C94   C92    1.36791       .     S
C94   H95    0.94919       .     S
H95   C94    0.94919       .     S
C94   C96    1.37434       .     S
C96   C94    1.37434       .     S
C96   C97    1.38074       .     S
C97   C96    1.38074       .     S
C96   C101   1.53266       .     S
C101  C96    1.53266       .     S
C97   H98    0.95203       .     S
H98   C97    0.95203       .     S
C97   C99    1.38714       .     S
C99   C97    1.38714       .     S
C99   H100   0.94930       .     S
H100  C99    0.94930       .     S
C101  C102   1.54863       .     S
C102  C101   1.54863       .     S
C101  C106   1.52678       .     S
C106  C101   1.52678       .     S
C101  C110   1.52232       .     S
C110  C101   1.52232       .     S
C102  H103   0.95986       .     S
H103  C102   0.95986       .     S
C102  H104   0.95887       .     S
H104  C102   0.95887       .     S
C102  H105   0.95994       .     S
H105  C102   0.95994       .     S
C106  H107   0.96113       .     S
H107  C106   0.96113       .     S
C106  H108   0.95949       .     S
H108  C106   0.95949       .     S
C106  H109   0.96073       .     S
H109  C106   0.96073       .     S
C110  H111   0.96009       .     S
H111  C110   0.96009       .     S
C110  H112   0.95977       .     S
H112  C110   0.95977       .     S
C110  H113   0.96117       .     S
H113  C110   0.96117       .     S
S114  O115   1.46139       .     S
O115  S114   1.46139       .     S
S114  O116   1.46148       .     S
O116  S114   1.46148       .     S
S114  O117   1.47028       .     S
O117  S114   1.47028       .     S
S114  C118   1.75475       .     S
C118  S114   1.75475       .     S
C118  C119   1.39470       .     S
C119  C118   1.39470       .     S
C118  C126   1.39795       .     S
C126  C118   1.39795       .     S
C119  H120   0.94909       .     S
H120  C119   0.94909       .     S
C119  C121   1.37230       .     S
C121  C119   1.37230       .     S
C121  H122   0.95093       .     S
H122  C121   0.95093       .     S
C121  C123   1.38017       .     S
C123  C121   1.38017       .     S
C123  C124   1.40255       .     S
C124  C123   1.40255       .     S
C123  C128   1.51579       .     S
C128  C123   1.51579       .     S
C124  H125   0.94788       .     S
H125  C124   0.94788       .     S
C124  C126   1.38329       .     S
C126  C124   1.38329       .     S
C126  H127   0.94775       .     S
H127  C126   0.94775       .     S
C128  C129   1.55128       .     S
C129  C128   1.55128       .     S
C128  C133   1.53667       .     S
C133  C128   1.53667       .     S
C128  C137   1.47587       .     S
C137  C128   1.47587       .     S
C129  H130   0.95651       .     S
H130  C129   0.95651       .     S
C129  H131   0.95905       .     S
H131  C129   0.95905       .     S
C129  H132   0.96434       .     S
H132  C129   0.96434       .     S
C133  H134   0.95999       .     S
H134  C133   0.95999       .     S
C133  H135   0.96063       .     S
H135  C133   0.96063       .     S
C133  H136   0.95816       .     S
H136  C133   0.95816       .     S
C137  H138   0.96162       .     S
H138  C137   0.96162       .     S
C137  H139   0.95909       .     S
H139  C137   0.95909       .     S
C137  H140   0.95943       .     S
H140  C137   0.95943       .     S
N141  H142   0.88061       .     S
H142  N141   0.88061       .     S
N141  H143   0.87851       .     S
H143  N141   0.87851       .     S
N141  C150   1.34587       .     S
C150  N141   1.34587       .     S
N144  H145   0.87778       .     S
H145  N144   0.87778       .     S
N144  H146   0.88108       .     S
H146  N144   0.88108       .     S
N144  C150   1.33107       .     S
C150  N144   1.33107       .     S
N147  H148   0.87858       .     S
H148  N147   0.87858       .     S
N147  H149   0.88020       .     S
H149  N147   0.88020       .     S
N147  C150   1.31936       .     S
C150  N147   1.31936       .     S
N151  H152   0.87992   1_465     S
H152  N151   0.87992   1_645     S
N151  H153   0.87920       .     S
H153  N151   0.87920       .     S
N151  C160   1.31888   1_565     S
C160  N151   1.31888   1_545     S
N154  H155   0.88092       .     S
H155  N154   0.88092       .     S
N154  H156   0.87897       .     S
H156  N154   0.87897       .     S
N154  C160   1.34883       .     S
C160  N154   1.34883       .     S
N157  H158   0.88093   1_455     S
H158  N157   0.88093   1_655     S
N157  H159   0.87995       .     S
H159  N157   0.87995       .     S
N157  C160   1.30896       .     S
C160  N157   1.30896       .     S
O161  H162   0.85001       .     S
H162  O161   0.85001       .     S
O161  H163   0.84899       .     S
H163  O161   0.84899       .     S
S164  O165   1.47267       .     S
O165  S164   1.47267       .     S
S164  O166   1.45732       .     S
O166  S164   1.45732       .     S
S164  O167   1.47258       .     S
O167  S164   1.47258       .     S
S164  C168   1.75880       .     S
C168  S164   1.75880       .     S
C168  C169   1.38276       .     S
C169  C168   1.38276       .     S
C168  C176   1.36512       .     S
C176  C168   1.36512       .     S
C169  H170   0.94946       .     S
H170  C169   0.94946       .     S
C169  C171   1.36862       .     S
C171  C169   1.36862       .     S
C171  H172   0.95156       .     S
H172  C171   0.95156       .     S
C171  C173   1.40892       .     S
C173  C171   1.40892       .     S
C173  C174   1.36774       .     S
C174  C173   1.36774       .     S
C173  C178   1.55739       .     S
C178  C173   1.55739       .     S
C174  H175   0.94872       .     S
H175  C174   0.94872       .     S
C174  C176   1.38844       .     S
C176  C174   1.38844       .     S
C176  H177   0.94946       .     S
H177  C176   0.94946       .     S
C178  C179   1.55250       .     S
C179  C178   1.55250       .     S
C178  C183   1.52435   1_455     S
C183  C178   1.52435   1_655     S
C178  C187   1.50773       .     S
C187  C178   1.50773       .     S
C179  H180   0.95868       .     S
H180  C179   0.95868       .     S
C179  H181   0.96097       .     S
H181  C179   0.96097       .     S
C179  H182   0.95815       .     S
H182  C179   0.95815       .     S
C183  H184   0.95794       .     S
H184  C183   0.95794       .     S
C183  H185   0.96148       .     S
H185  C183   0.96148       .     S
C183  H186   0.95813       .     S
H186  C183   0.95813       .     S
C187  H188   0.96270       .     S
H188  C187   0.96270       .     S
C187  H189   0.96021       .     S
H189  C187   0.96021       .     S
C187  H190   0.95865       .     S
H190  C187   0.95865       .     S
O21   H4     2.07853       .     S
H4    O21    2.07853       .     S
O22   H8     2.00163       .     S
H8    O22    2.00163       .     S
O115  H15    2.02679       .     S
H15   O115   2.02679       .     S
O117  H17    2.05951       .     S
H17   O117   2.05951       .     S
O47   H18    1.99873       .     S
H18   O47    1.99873       .     S
O52   H48    1.93154       .     S
H48   O52    1.93154       .     S
O161  H49    1.91431   1_565     S
H49   O161   1.91431   1_545     S
O88   H81    1.96247       .     S
H81   O88    1.96247       .     S
O89   H85    2.13402       .     S
H85   O89    2.13402       .     S
O23   H145   2.07384       .     S
H145  O23    2.07384       .     S
O22   H148   2.06682       .     S
H148  O22    2.06682       .     S
O51   H152   2.12418       .     S
H152  O51    2.12418       .     S
O166  H155   2.26014       .     S
H155  O166   2.26014       .     S
O161  H156   2.05050   1_565     S
H156  O161   2.05050   1_545     S
O53   H158   2.11539       .     S
H158  O53    2.11539       .     S
O165  H159   1.96730       .     S
H159  O165   1.96730       .     S
H1    N0     0.88028       .     S
N0    H1     0.88028       .     S
H2    N0     0.87937       .     S
N0    H2     0.87937       .     S
C9    N0     1.32651       .     S
N0    C9     1.32651       .     S
H4    N3     0.87916       .     S
N3    H4     0.87916       .     S
H5    N3     0.88006       .     S
N3    H5     0.88006       .     S
C9    N3     1.34944       .     S
N3    C9     1.34944       .     S
H7    N6     0.87994       .     S
N6    H7     0.87994       .     S
H8    N6     0.88056       .     S
N6    H8     0.88056       .     S
C9    N6     1.31590       .     S
N6    C9     1.31590       .     S
H11   N10    0.88052       .     S
N10   H11    0.88052       .     S
H12   N10    0.88044       .     S
N10   H12    0.88044       .     S
C19   N10    1.33134   1_554     S
N10   C19    1.33134   1_556     S
H14   N13    0.87927       .     S
N13   H14    0.87927       .     S
H15   N13    0.87929       .     S
N13   H15    0.87929       .     S
C19   N13    1.32644       .     S
N13   C19    1.32644       .     S
H17   N16    0.87885       .     S
N16   H17    0.87885       .     S
H18   N16    0.88098       .     S
N16   H18    0.88098       .     S
C19   N16    1.33271       .     S
N16   C19    1.33271       .     S
O21   S20    1.44949       .     S
S20   O21    1.44949       .     S
O22   S20    1.46727       .     S
S20   O22    1.46727       .     S
O23   S20    1.46797       .     S
S20   O23    1.46797       .     S
C24   S20    1.76672       .     S
S20   C24    1.76672       .     S
C25   C24    1.37218       .     S
C24   C25    1.37218       .     S
C32   C24    1.36752       .     S
C24   C32    1.36752       .     S
H26   C25    0.95060       .     S
C25   H26    0.95060       .     S
C27   C25    1.36546       .     S
C25   C27    1.36546       .     S
H28   C27    0.94983       .     S
C27   H28    0.94983       .     S
C29   C27    1.38438       .     S
C27   C29    1.38438       .     S
C30   C29    1.36313       .     S
C29   C30    1.36313       .     S
C34   C29    1.54484       .     S
C29   C34    1.54484       .     S
H31   C30    0.95088       .     S
C30   H31    0.95088       .     S
C32   C30    1.37563       .     S
C30   C32    1.37563       .     S
H33   C32    0.94878       .     S
C32   H33    0.94878       .     S
C35   C34    1.51263       .     S
C34   C35    1.51263       .     S
C39   C34    1.56035       .     S
C34   C39    1.56035       .     S
C43   C34    1.50859       .     S
C34   C43    1.50859       .     S
H36   C35    0.95876       .     S
C35   H36    0.95876       .     S
H37   C35    0.95892       .     S
C35   H37    0.95892       .     S
H38   C35    0.96193       .     S
C35   H38    0.96193       .     S
H40   C39    0.96008       .     S
C39   H40    0.96008       .     S
H41   C39    0.96019       .     S
C39   H41    0.96019       .     S
H42   C39    0.96047       .     S
C39   H42    0.96047       .     S
H44   C43    0.96108       .     S
C43   H44    0.96108       .     S
H45   C43    0.95988       .     S
C43   H45    0.95988       .     S
H46   C43    0.95998       .     S
C43   H46    0.95998       .     S
H48   O47    0.85045       .     S
O47   H48    0.85045       .     S
H49   O47    0.87610       .     S
O47   H49    0.87610       .     S
O51   S50    1.46849       .     S
S50   O51    1.46849       .     S
O52   S50    1.46541       .     S
S50   O52    1.46541       .     S
O53   S50    1.45443       .     S
S50   O53    1.45443       .     S
C54   S50    1.76168   1_565     S
S50   C54    1.76168   1_545     S
C55   C54    1.39040       .     S
C54   C55    1.39040       .     S
C62   C54    1.38435       .     S
C54   C62    1.38435       .     S
H56   C55    0.95095       .     S
C55   H56    0.95095       .     S
C57   C55    1.37065       .     S
C55   C57    1.37065       .     S
H58   C57    0.94990       .     S
C57   H58    0.94990       .     S
C59   C57    1.39249       .     S
C57   C59    1.39249       .     S
C60   C59    1.40549       .     S
C59   C60    1.40549       .     S
C64   C59    1.50780       .     S
C59   C64    1.50780       .     S
H61   C60    0.94927       .     S
C60   H61    0.94927       .     S
C62   C60    1.37643       .     S
C60   C62    1.37643       .     S
H63   C62    0.94959       .     S
C62   H63    0.94959       .     S
C65   C64    1.51399       .     S
C64   C65    1.51399       .     S
C69   C64    1.54622       .     S
C64   C69    1.54622       .     S
C73   C64    1.54005       .     S
C64   C73    1.54005       .     S
H66   C65    0.96215       .     S
C65   H66    0.96215       .     S
H67   C65    0.95981       .     S
C65   H67    0.95981       .     S
H68   C65    0.96037       .     S
C65   H68    0.96037       .     S
H70   C69    0.96410       .     S
C69   H70    0.96410       .     S
H71   C69    0.95992       .     S
C69   H71    0.95992       .     S
H72   C69    0.96009       .     S
C69   H72    0.96009       .     S
H74   C73    0.96025       .     S
C73   H74    0.96025       .     S
H75   C73    0.96040       .     S
C73   H75    0.96040       .     S
H76   C73    0.95889       .     S
C73   H76    0.95889       .     S
H78   N77    0.88001       .     S
N77   H78    0.88001       .     S
H79   N77    0.88057   1_455     S
N77   H79    0.88057   1_655     S
C86   N77    1.32963   1_455     S
N77   C86    1.32963   1_655     S
H81   N80    0.88094       .     S
N80   H81    0.88094       .     S
H82   N80    0.87880       .     S
N80   H82    0.87880       .     S
C86   N80    1.33429       .     S
N80   C86    1.33429       .     S
H84   N83    0.87999       .     S
N83   H84    0.87999       .     S
H85   N83    0.88024   1_455     S
N83   H85    0.88024   1_655     S
C86   N83    1.32762   1_455     S
N83   C86    1.32762   1_655     S
O88   S87    1.46296       .     S
S87   O88    1.46296       .     S
O89   S87    1.46574       .     S
S87   O89    1.46574       .     S
O90   S87    1.45484       .     S
S87   O90    1.45484       .     S
C91   S87    1.75230       .     S
S87   C91    1.75230       .     S
C92   C91    1.36997       .     S
C91   C92    1.36997       .     S
C99   C91    1.37037       .     S
C91   C99    1.37037       .     S
H93   C92    0.94989       .     S
C92   H93    0.94989       .     S
C94   C92    1.36791       .     S
C92   C94    1.36791       .     S
H95   C94    0.94919       .     S
C94   H95    0.94919       .     S
C96   C94    1.37434       .     S
C94   C96    1.37434       .     S
C97   C96    1.38074       .     S
C96   C97    1.38074       .     S
C101  C96    1.53266       .     S
C96   C101   1.53266       .     S
H98   C97    0.95203       .     S
C97   H98    0.95203       .     S
C99   C97    1.38714       .     S
C97   C99    1.38714       .     S
H100  C99    0.94930       .     S
C99   H100   0.94930       .     S
C102  C101   1.54863       .     S
C101  C102   1.54863       .     S
C106  C101   1.52678       .     S
C101  C106   1.52678       .     S
C110  C101   1.52232       .     S
C101  C110   1.52232       .     S
H103  C102   0.95986       .     S
C102  H103   0.95986       .     S
H104  C102   0.95887       .     S
C102  H104   0.95887       .     S
H105  C102   0.95994       .     S
C102  H105   0.95994       .     S
H107  C106   0.96113       .     S
C106  H107   0.96113       .     S
H108  C106   0.95949       .     S
C106  H108   0.95949       .     S
H109  C106   0.96073       .     S
C106  H109   0.96073       .     S
H111  C110   0.96009       .     S
C110  H111   0.96009       .     S
H112  C110   0.95977       .     S
C110  H112   0.95977       .     S
H113  C110   0.96117       .     S
C110  H113   0.96117       .     S
O115  S114   1.46139       .     S
S114  O115   1.46139       .     S
O116  S114   1.46148       .     S
S114  O116   1.46148       .     S
O117  S114   1.47028       .     S
S114  O117   1.47028       .     S
C118  S114   1.75475       .     S
S114  C118   1.75475       .     S
C119  C118   1.39470       .     S
C118  C119   1.39470       .     S
C126  C118   1.39795       .     S
C118  C126   1.39795       .     S
H120  C119   0.94909       .     S
C119  H120   0.94909       .     S
C121  C119   1.37230       .     S
C119  C121   1.37230       .     S
H122  C121   0.95093       .     S
C121  H122   0.95093       .     S
C123  C121   1.38017       .     S
C121  C123   1.38017       .     S
C124  C123   1.40255       .     S
C123  C124   1.40255       .     S
C128  C123   1.51579       .     S
C123  C128   1.51579       .     S
H125  C124   0.94788       .     S
C124  H125   0.94788       .     S
C126  C124   1.38329       .     S
C124  C126   1.38329       .     S
H127  C126   0.94775       .     S
C126  H127   0.94775       .     S
C129  C128   1.55128       .     S
C128  C129   1.55128       .     S
C133  C128   1.53667       .     S
C128  C133   1.53667       .     S
C137  C128   1.47587       .     S
C128  C137   1.47587       .     S
H130  C129   0.95651       .     S
C129  H130   0.95651       .     S
H131  C129   0.95905       .     S
C129  H131   0.95905       .     S
H132  C129   0.96434       .     S
C129  H132   0.96434       .     S
H134  C133   0.95999       .     S
C133  H134   0.95999       .     S
H135  C133   0.96063       .     S
C133  H135   0.96063       .     S
H136  C133   0.95816       .     S
C133  H136   0.95816       .     S
H138  C137   0.96162       .     S
C137  H138   0.96162       .     S
H139  C137   0.95909       .     S
C137  H139   0.95909       .     S
H140  C137   0.95943       .     S
C137  H140   0.95943       .     S
H142  N141   0.88061       .     S
N141  H142   0.88061       .     S
H143  N141   0.87851       .     S
N141  H143   0.87851       .     S
C150  N141   1.34587       .     S
N141  C150   1.34587       .     S
H145  N144   0.87778       .     S
N144  H145   0.87778       .     S
H146  N144   0.88108       .     S
N144  H146   0.88108       .     S
C150  N144   1.33107       .     S
N144  C150   1.33107       .     S
H148  N147   0.87858       .     S
N147  H148   0.87858       .     S
H149  N147   0.88020       .     S
N147  H149   0.88020       .     S
C150  N147   1.31936       .     S
N147  C150   1.31936       .     S
H152  N151   0.87992   1_645     S
N151  H152   0.87992   1_465     S
H153  N151   0.87920       .     S
N151  H153   0.87920       .     S
C160  N151   1.31888   1_545     S
N151  C160   1.31888   1_565     S
H155  N154   0.88092       .     S
N154  H155   0.88092       .     S
H156  N154   0.87897       .     S
N154  H156   0.87897       .     S
C160  N154   1.34883       .     S
N154  C160   1.34883       .     S
H158  N157   0.88093   1_655     S
N157  H158   0.88093   1_455     S
H159  N157   0.87995       .     S
N157  H159   0.87995       .     S
C160  N157   1.30896       .     S
N157  C160   1.30896       .     S
H162  O161   0.85001       .     S
O161  H162   0.85001       .     S
H163  O161   0.84899       .     S
O161  H163   0.84899       .     S
O165  S164   1.47267       .     S
S164  O165   1.47267       .     S
O166  S164   1.45732       .     S
S164  O166   1.45732       .     S
O167  S164   1.47258       .     S
S164  O167   1.47258       .     S
C168  S164   1.75880       .     S
S164  C168   1.75880       .     S
C169  C168   1.38276       .     S
C168  C169   1.38276       .     S
C176  C168   1.36512       .     S
C168  C176   1.36512       .     S
H170  C169   0.94946       .     S
C169  H170   0.94946       .     S
C171  C169   1.36862       .     S
C169  C171   1.36862       .     S
H172  C171   0.95156       .     S
C171  H172   0.95156       .     S
C173  C171   1.40892       .     S
C171  C173   1.40892       .     S
C174  C173   1.36774       .     S
C173  C174   1.36774       .     S
C178  C173   1.55739       .     S
C173  C178   1.55739       .     S
H175  C174   0.94872       .     S
C174  H175   0.94872       .     S
C176  C174   1.38844       .     S
C174  C176   1.38844       .     S
H177  C176   0.94946       .     S
C176  H177   0.94946       .     S
C179  C178   1.55250       .     S
C178  C179   1.55250       .     S
C183  C178   1.52435   1_655     S
C178  C183   1.52435   1_455     S
C187  C178   1.50773       .     S
C178  C187   1.50773       .     S
H180  C179   0.95868       .     S
C179  H180   0.95868       .     S
H181  C179   0.96097       .     S
C179  H181   0.96097       .     S
H182  C179   0.95815       .     S
C179  H182   0.95815       .     S
H184  C183   0.95794       .     S
C183  H184   0.95794       .     S
H185  C183   0.96148       .     S
C183  H185   0.96148       .     S
H186  C183   0.95813       .     S
C183  H186   0.95813       .     S
H188  C187   0.96270       .     S
C187  H188   0.96270       .     S
H189  C187   0.96021       .     S
C187  H189   0.96021       .     S
H190  C187   0.95865       .     S
C187  H190   0.95865       .     S
