data_I
_chemical_name_common  '/data/user2/wty/HOF/MOFDiff/mofdiff/data/test/310-hof-fju-52'
_cell_length_a 18.79710
_cell_length_b 27.39660
_cell_length_c 28.14380
_cell_angle_alpha 90.00000
_cell_angle_beta  90.00000
_cell_angle_gamma 90.00000
_space_group_name_H-M_alt      'P 1'


loop_
_space_group_symop_operation_xyz
  'x, y, z' 

loop_
_atom_site_label
_atom_site_fract_x
_atom_site_fract_y
_atom_site_fract_z
_atom_site_type_symbol
O0      0.0346   0.4212    0.725     O
H1      0.0122   0.3985    0.739     H
H2      0.0719   0.4089   0.7127     H
O3         0.0   0.3705     0.75     O
H4       0.003   0.3777   0.7207     H
H5       0.997   0.3777   0.7793     H
H6      0.0163    0.394   0.7665     H
H7      0.9837    0.394   0.7335     H
O8      0.1358     0.25     0.25     O
H9      0.1709    0.267   0.2593     H
H10     0.1709    0.233   0.2407     H
H11     0.1118   0.2657   0.2295     H
H12     0.1118   0.2343   0.2705     H
O13     0.0464   0.2298   0.3299     O
H14     0.0873   0.2378   0.3205     H
H15     0.0294   0.2067   0.3138     H
O16      0.957   0.3007   0.3285     O
H17     0.9652   0.3312   0.3298     H
H18      0.996   0.2858   0.3293     H
O19     0.3254  0.31986  0.45077     O
O20     0.2092  0.30684  0.44669     O
C21     0.2494   0.4737   0.6995     C
N22     0.2511   0.3732  0.68682     N
C23     0.2639  0.31326   0.5218     C
C24     0.3127   0.4451  0.70494     C
H25     0.3555   0.4601   0.7126     H
C26     0.2644   0.3127   0.4694     C
C27      0.201   0.3044    0.545     C
H28     0.1603   0.2974   0.5275     H
C29     0.1875   0.4471   0.6905     C
H30     0.1443   0.4636   0.6884     H
C31     0.3102   0.3959   0.6988     C
H32     0.3514   0.3777   0.7033     H
C33     0.2559   0.3159   0.6204     C
C34     0.3248    0.323   0.5486     C
H35      0.368   0.3285   0.5334     H
C36     0.3209   0.3243   0.5964     C
H37     0.3618   0.3308   0.6139     H
C38     0.1972   0.3055   0.5929     C
H39      0.154   0.2991   0.6077     H
C40     0.1885   0.3984   0.6849     C
H41     0.1462   0.3817   0.6797     H
C42     0.2553   0.3201   0.6727     C
H43     0.2982   0.3057   0.6857     H
H44     0.2147   0.3027   0.6855     H
H45      0.197    0.304   0.4024     H
O46     0.1746  0.68014  0.45077     O
O47     0.2908  0.69316  0.44669     O
C48     0.2506   0.5263   0.6995     C
N49     0.2489   0.6268  0.68682     N
C50     0.2361  0.68674   0.5218     C
C51     0.1873   0.5549  0.70494     C
H52     0.1445   0.5399   0.7126     H
C53     0.2356   0.6873   0.4694     C
C54      0.299   0.6956    0.545     C
H55     0.3397   0.7026   0.5275     H
C56     0.3125   0.5529   0.6905     C
H57     0.3557   0.5364   0.6884     H
C58     0.1898   0.6041   0.6988     C
H59     0.1486   0.6223   0.7033     H
C60     0.2441   0.6841   0.6204     C
C61     0.1752    0.677   0.5486     C
H62      0.132   0.6715   0.5334     H
C63     0.1791   0.6757   0.5964     C
H64     0.1382   0.6692   0.6139     H
C65     0.3028   0.6945   0.5929     C
H66      0.346   0.7009   0.6077     H
C67     0.3115   0.6016   0.6849     C
H68     0.3538   0.6183   0.6797     H
C69     0.2447   0.6799   0.6727     C
H70     0.2018   0.6943   0.6857     H
H71     0.2853   0.6973   0.6855     H
H72      0.303    0.696   0.4024     H
H73      0.039    0.333    0.265     H
O74        0.0    0.336     0.25     O
H75     0.0051   0.3568   0.2279     H
H76     0.9949   0.3568   0.2721     H
H77      0.961    0.333    0.235     H
O78     0.9547   0.3407   0.2654     O
H79     0.9833    0.355   0.2841     H
H80     0.9475   0.3578   0.2406     H
O81     0.9809   0.4503   0.5795     O
H82     0.9703   0.4517   0.5502     H
H83     0.9658   0.4758   0.5934     H
P84    0.01436  0.43982  0.33129     P
P85     0.2548  0.32794  0.32925     P
O86     0.9829    0.472   0.2928     O
H87     0.9573   0.4555   0.2755     H
O88     0.9961   0.4595  0.37906     O
C89     0.1526  0.48231  0.32554     C
C90     0.2286  0.47806  0.32559     C
C91     0.2614  0.43165  0.32589     C
O92     0.3201  0.32613  0.36205     O
C93     0.1113  0.43909  0.32646     C
C94     0.1219   0.5302  0.32369     C
H95     0.0727   0.5332   0.3222     H
C96     0.3385   0.4299  0.32403     C
H97     0.3609   0.3997    0.323     H
C98     0.2199   0.3895  0.32755     C
O99     0.2658   0.3119   0.2805     O
C100    0.1448   0.3947  0.32714     C
H101    0.1169   0.3667   0.3273     H
O102    0.1944   0.2977   0.3543     O
O103    0.9904   0.3868   0.3274     O
H104     0.314    0.325   0.4065     H
P105   0.48564  0.56018  0.33129     P
P106    0.2452  0.67206  0.32925     P
O107    0.5171    0.528   0.2928     O
H108    0.5427   0.5445   0.2755     H
O109    0.5039   0.5405  0.37906     O
C110    0.3474  0.51769  0.32554     C
C111    0.2714  0.52194  0.32559     C
C112    0.2386  0.56835  0.32589     C
O113    0.1799  0.67387  0.36205     O
C114    0.3887  0.56091  0.32646     C
C115    0.3781   0.4698  0.32369     C
H116    0.4273   0.4668   0.3222     H
C117    0.1615   0.5701  0.32403     C
H118    0.1391   0.6003    0.323     H
C119    0.2801   0.6105  0.32755     C
O120    0.2342   0.6881   0.2805     O
C121    0.3552   0.6053  0.32714     C
H122    0.3831   0.6333   0.3273     H
O123    0.3056   0.7023   0.3543     O
O124    0.5096   0.6132   0.3274     O
H125     0.186    0.675   0.4065     H
O126    0.0901   0.3072   0.7446     O
H127    0.1129   0.3184    0.767     H
H128    0.0965   0.2777   0.7428     H
O129    0.1266     0.25     0.75     O
H130    0.0992   0.2258   0.7456     H
H131    0.0992   0.2742   0.7544     H
H132    0.1632   0.2472   0.7324     H
H133    0.1632   0.2528   0.7676     H
O134    0.9581    0.293   0.6315     O
H135    0.9504   0.2695   0.6504     H
H136    0.9204   0.2988   0.6161     H
O137   0.37104  0.44959  0.58668     O
H138    0.4117   0.4578   0.5936     H
O139   0.41482  0.44673  0.51381     O
N140    0.0508  0.37264  0.47672     N
C141      0.29  0.44039  0.52406     C
C142     0.151  0.42989  0.49277     C
C143    0.2342  0.43783  0.55668     C
H144    0.2437   0.4394   0.5891     H
C145    0.2761  0.43703  0.47608     C
H146    0.3131   0.4381   0.4542     H
C147    0.1655  0.43296  0.54104     C
H148    0.1284   0.4317   0.5629     H
C149    0.2059  0.43195  0.46061     C
H150    0.1962   0.4299   0.4283     H
C151    0.3654  0.44573  0.54031     C
C152    0.0101   0.2757  0.47718     C
C153    0.0744   0.4253   0.4771     C
H154    0.0443   0.4438   0.4986     H
H155    0.0692    0.439   0.4455     H
C156    0.0242   0.3529   0.5158     C
H157    0.0189    0.372   0.5429     H
C158    0.0044   0.3049   0.5171     C
H159    0.9868   0.2918   0.5452     H
C160    0.0363   0.2982   0.4366     C
H161    0.0404   0.2804   0.4087     H
C162    0.0564   0.3466   0.4371     C
H163    0.0739   0.3611   0.4096     H
O164   0.62896  0.05041  0.58668     O
H165    0.5883   0.0422   0.5936     H
O166   0.58518  0.05327  0.51381     O
N167    0.9492  0.12736  0.47672     N
C168      0.71  0.05961  0.52406     C
C169     0.849  0.07011  0.49277     C
C170    0.7658  0.06217  0.55668     C
H171    0.7563   0.0606   0.5891     H
C172    0.7239  0.06297  0.47608     C
H173    0.6869   0.0619   0.4542     H
C174    0.8345  0.06704  0.54104     C
H175    0.8716   0.0683   0.5629     H
C176    0.7941  0.06805  0.46061     C
H177    0.8038   0.0701   0.4283     H
C178    0.6346  0.05427  0.54031     C
C179    0.9899   0.2243  0.47718     C
C180    0.9256   0.0747   0.4771     C
H181    0.9557   0.0562   0.4986     H
H182    0.9308    0.061   0.4455     H
C183    0.9758   0.1471   0.5158     C
H184    0.9811    0.128   0.5429     H
C185    0.9956   0.1951   0.5171     C
H186    0.0132   0.2082   0.5452     H
C187    0.9637   0.2018   0.4366     C
H188    0.9596   0.2196   0.4087     H
C189    0.9436   0.1534   0.4371     C
H190    0.9261   0.1389   0.4096     H
O191     0.027   0.3811   0.6453     O
H192    0.0124   0.4018    0.625     H
H193    0.0056   0.3542   0.6404     H
loop_
_geom_bond_atom_site_label_1
_geom_bond_atom_site_label_2
_geom_bond_distance
_geom_bond_site_symmetry_2
_ccdc_geom_bond_type
H1    O3     0.85842       .     S
O3    H1     0.85842       .     S
H2    O191   2.21147       .     S
O191  H2     2.21147       .     S
H7    O3     0.85090   1_655     S
O3    H7     0.85090   1_455     S
H9    O99    2.24750       .     S
O99   H9     2.24750       .     S
H12   O13    2.07874       .     S
O13   H12    2.07874       .     S
H14   O8     2.20899       .     S
O8    H14    2.20899       .     S
H17   O103   1.59663       .     S
O103  H17    1.59663       .     S
H18   O13    1.80322   1_655     S
O13   H18    1.80322   1_455     S
H45   O102   1.36555       .     S
O102  H45    1.36555       .     S
H72   O123   1.36555       .     S
O123  H72    1.36555       .     S
H76   O103   1.76207       .     S
O103  H76    1.76207       .     S
H79   O103   1.50395       .     S
O103  H79    1.50395       .     S
H104  O92    1.25662       .     S
O92   H104   1.25662       .     S
H125  O113   1.25662       .     S
O113  H125   1.25662       .     S
H128  O129   0.96803       .     S
O129  H128   0.96803       .     S
H131  O129   0.84863       .     S
O129  H131   0.84863       .     S
H192  O81    1.93802   1_455     S
O81   H192   1.93802   1_655     S
H193  O134   1.91603   1_455     S
O134  H193   1.91603   1_655     S
O0    H1     0.84811       .     S
H1    O0     0.84811       .     S
O0    H2     0.85145       .     S
H2    O0     0.85145       .     S
H1    O3     0.85842       .     S
O3    H1     0.85842       .     S
H1    H7     0.57110   1_455     S
H7    H1     0.57110   1_655     S
O3    H4     0.84975       .     S
H4    O3     0.84975       .     S
O3    H5     0.84975   1_455     S
H5    O3     0.84975   1_655     S
O3    H6     0.85089       .     S
H6    O3     0.85089       .     S
O3    H7     0.85090   1_455     S
H7    O3     0.85090   1_655     S
H4    H7     0.67883   1_455     S
H7    H4     0.67883   1_655     S
H5    H6     0.67883   1_655     S
H6    H5     0.67883   1_455     S
O8    H9     0.84896       .     S
H9    O8     0.84896       .     S
O8    H10    0.84896       .     S
H10   O8     0.84896       .     S
O8    H11    0.84935       .     S
H11   O8     0.84935       .     S
O8    H12    0.84935       .     S
H12   O8     0.84935       .     S
O13   H14    0.84207       .     S
H14   O13    0.84207       .     S
O13   H15    0.84139       .     S
H15   O13    0.84139       .     S
O16   H17    0.85048       .     S
H17   O16    0.85048       .     S
O16   H18    0.83938       .     S
H18   O16    0.83938       .     S
O19   C26    1.27598       .     S
C26   O19    1.27598       .     S
O20   C26    1.22919       .     S
C26   O20    1.22919       .     S
C21   C24    1.43288       .     S
C24   C21    1.43288       .     S
C21   C29    1.39609       .     S
C29   C21    1.39609       .     S
C21   C48    1.44124       .     S
C48   C21    1.44124       .     S
N22   C31    1.31703       .     S
C31   N22    1.31703       .     S
N22   C40    1.36535       .     S
C40   N22    1.36535       .     S
N22   C42    1.51012       .     S
C42   N22    1.51012       .     S
C23   C26    1.47485       .     S
C26   C23    1.47485       .     S
C23   C27    1.37229       .     S
C27   C23    1.37229       .     S
C23   C34    1.39662       .     S
C34   C23    1.39662       .     S
C24   H25    0.92876       .     S
H25   C24    0.92876       .     S
C24   C31    1.35976       .     S
C31   C24    1.35976       .     S
C27   H28    0.92986       .     S
H28   C27    0.92986       .     S
C27   C38    1.35031       .     S
C38   C27    1.35031       .     S
C29   H30    0.93126       .     S
H30   C29    0.93126       .     S
C29   C40    1.34362       .     S
C40   C29    1.34362       .     S
C31   H32    0.92974       .     S
H32   C31    0.92974       .     S
C33   C36    1.41493       .     S
C36   C33    1.41493       .     S
C33   C38    1.37755       .     S
C38   C33    1.37755       .     S
C33   C42    1.47645       .     S
C42   C33    1.47645       .     S
C34   H35    0.93011       .     S
H35   C34    0.93011       .     S
C34   C36    1.34774       .     S
C36   C34    1.34774       .     S
C36   H37    0.93024       .     S
H37   C36    0.93024       .     S
C38   H39    0.92932       .     S
H39   C38    0.92932       .     S
C40   H41    0.92895       .     S
H41   C40    0.92895       .     S
C42   H43    0.96942       .     S
H43   C42    0.96942       .     S
C42   H44    0.96924       .     S
H44   C42    0.96924       .     S
O46   C53    1.27598       .     S
C53   O46    1.27598       .     S
O47   C53    1.22918       .     S
C53   O47    1.22918       .     S
C48   C51    1.43288       .     S
C51   C48    1.43288       .     S
C48   C56    1.39609       .     S
C56   C48    1.39609       .     S
N49   C58    1.31703       .     S
C58   N49    1.31703       .     S
N49   C67    1.36535       .     S
C67   N49    1.36535       .     S
N49   C69    1.51012       .     S
C69   N49    1.51012       .     S
C50   C53    1.47484       .     S
C53   C50    1.47484       .     S
C50   C54    1.37229       .     S
C54   C50    1.37229       .     S
C50   C61    1.39662       .     S
C61   C50    1.39662       .     S
C51   H52    0.92876       .     S
H52   C51    0.92876       .     S
C51   C58    1.35976       .     S
C58   C51    1.35976       .     S
C54   H55    0.92986       .     S
H55   C54    0.92986       .     S
C54   C65    1.35032       .     S
C65   C54    1.35032       .     S
C56   H57    0.93126       .     S
H57   C56    0.93126       .     S
C56   C67    1.34362       .     S
C67   C56    1.34362       .     S
C58   H59    0.92974       .     S
H59   C58    0.92974       .     S
C60   C63    1.41493       .     S
C63   C60    1.41493       .     S
C60   C65    1.37755       .     S
C65   C60    1.37755       .     S
C60   C69    1.47645       .     S
C69   C60    1.47645       .     S
C61   H62    0.93011       .     S
H62   C61    0.93011       .     S
C61   C63    1.34774       .     S
C63   C61    1.34774       .     S
C63   H64    0.93024       .     S
H64   C63    0.93024       .     S
C65   H66    0.92932       .     S
H66   C65    0.92932       .     S
C67   H68    0.92896       .     S
H68   C67    0.92896       .     S
C69   H70    0.96942       .     S
H70   C69    0.96942       .     S
C69   H71    0.96925       .     S
H71   C69    0.96925       .     S
H73   O74    0.84993       .     S
O74   H73    0.84993       .     S
O74   H75    0.84898       .     S
H75   O74    0.84898       .     S
O74   H76    0.84898   1_455     S
H76   O74    0.84898   1_655     S
O74   H77    0.84993   1_455     S
H77   O74    0.84993   1_655     S
O74   O78    0.96410   1_455     S
O78   O74    0.96410   1_655     S
O74   H79    1.13601   1_455     S
H79   O74    1.13601   1_655     S
O74   H80    1.18345   1_455     S
H80   O74    1.18345   1_655     S
H76   O78    0.89505       .     S
O78   H76    0.89505       .     S
H76   H79    0.40501       .     S
H79   H76    0.40501       .     S
H77   O78    0.88912       .     S
O78   H77    0.88912       .     S
O78   H79    0.84822       .     S
H79   O78    0.84822       .     S
O78   H80    0.85144       .     S
H80   O78    0.85144       .     S
O81   H82    0.84921       .     S
H82   O81    0.84921       .     S
O81   H83    0.84951       .     S
H83   O81    0.84951       .     S
P84   O86    1.51671   1_455     S
O86   P84    1.51671   1_655     S
P84   O88    1.48862   1_455     S
O88   P84    1.48862   1_655     S
P84   C93    1.82736       .     S
C93   P84    1.82736       .     S
P84   O103   1.52472   1_455     S
O103  P84    1.52472   1_655     S
P85   O92    1.53663       .     S
O92   P85    1.53663       .     S
P85   C98    1.81026       .     S
C98   P85    1.81026       .     S
P85   O99    1.45543       .     S
O99   P85    1.45543       .     S
P85   O102   1.57239       .     S
O102  P85    1.57239       .     S
O86   H87    0.82034       .     S
H87   O86    0.82034       .     S
C89   C90    1.43332       .     S
C90   C89    1.43332       .     S
C89   C93    1.41612       .     S
C93   C89    1.41612       .     S
C89   C94    1.43427       .     S
C94   C89    1.43427       .     S
C90   C91    1.41310       .     S
C91   C90    1.41310       .     S
C90   C111   1.44653       .     S
C111  C90    1.44653       .     S
C91   C96    1.45099       .     S
C96   C91    1.45099       .     S
C91   C98    1.39434       .     S
C98   C91    1.39434       .     S
C93   C100   1.36963       .     S
C100  C93    1.36963       .     S
C94   H95    0.92941       .     S
H95   C94    0.92941       .     S
C94   C117   1.32253       .     S
C117  C94    1.32253       .     S
C96   H97    0.92881       .     S
H97   C96    0.92881       .     S
C96   C115   1.32253       .     S
C115  C96    1.32253       .     S
C98   C100   1.41888       .     S
C100  C98    1.41888       .     S
C100  H101   0.92925       .     S
H101  C100   0.92925       .     S
P105  O107   1.51671       .     S
O107  P105   1.51671       .     S
P105  O109   1.48862       .     S
O109  P105   1.48862       .     S
P105  C114   1.82736       .     S
C114  P105   1.82736       .     S
P105  O124   1.52472       .     S
O124  P105   1.52472       .     S
P106  O113   1.53663       .     S
O113  P106   1.53663       .     S
P106  C119   1.81026       .     S
C119  P106   1.81026       .     S
P106  O120   1.45543       .     S
O120  P106   1.45543       .     S
P106  O123   1.57239       .     S
O123  P106   1.57239       .     S
O107  H108   0.82034       .     S
H108  O107   0.82034       .     S
C110  C111   1.43332       .     S
C111  C110   1.43332       .     S
C110  C114   1.41612       .     S
C114  C110   1.41612       .     S
C110  C115   1.43427       .     S
C115  C110   1.43427       .     S
C111  C112   1.41310       .     S
C112  C111   1.41310       .     S
C112  C117   1.45099       .     S
C117  C112   1.45099       .     S
C112  C119   1.39434       .     S
C119  C112   1.39434       .     S
C114  C121   1.36963       .     S
C121  C114   1.36963       .     S
C115  H116   0.92941       .     S
H116  C115   0.92941       .     S
C117  H118   0.92881       .     S
H118  C117   0.92881       .     S
C119  C121   1.41888       .     S
C121  C119   1.41888       .     S
C121  H122   0.92925       .     S
H122  C121   0.92925       .     S
O126  H127   0.82174       .     S
H127  O126   0.82174       .     S
O126  H128   0.81867       .     S
H128  O126   0.81867       .     S
O126  H131   0.96058       .     S
H131  O126   0.96058       .     S
H128  O129   0.96803       .     S
O129  H128   0.96803       .     S
H128  H131   0.34402       .     S
H131  H128   0.34402       .     S
O129  H130   0.84863       .     S
H130  O129   0.84863       .     S
O129  H131   0.84863       .     S
H131  O129   0.84863       .     S
O129  H132   0.85120       .     S
H132  O129   0.85120       .     S
O129  H133   0.85120       .     S
H133  O129   0.85120       .     S
O134  H135   0.84758       .     S
H135  O134   0.84758       .     S
O134  H136   0.84574       .     S
H136  O134   0.84574       .     S
O137  H138   0.82016       .     S
H138  O137   0.82016       .     S
O137  C151   1.31359       .     S
C151  O137   1.31359       .     S
O139  C151   1.19161       .     S
C151  O139   1.19161       .     S
N140  C153   1.50941       .     S
C153  N140   1.50941       .     S
N140  C156   1.32369       .     S
C156  N140   1.32369       .     S
N140  C162   1.32793       .     S
C162  N140   1.32793       .     S
C141  C143   1.39567       .     S
C143  C141   1.39567       .     S
C141  C145   1.37846       .     S
C145  C141   1.37846       .     S
C141  C151   1.49643       .     S
C151  C141   1.49643       .     S
C142  C147   1.38812       .     S
C147  C142   1.38812       .     S
C142  C149   1.37381       .     S
C149  C142   1.37381       .     S
C142  C153   1.51112       .     S
C153  C142   1.51112       .     S
C143  H144   0.93072       .     S
H144  C143   0.93072       .     S
C143  C147   1.37083       .     S
C147  C143   1.37083       .     S
C145  H146   0.92939       .     S
H146  C145   0.92939       .     S
C145  C149   1.39648       .     S
C149  C145   1.39648       .     S
C147  H148   0.93060       .     S
H148  C147   0.93060       .     S
C149  H150   0.92912       .     S
H150  C149   0.92912       .     S
C152  C158   1.38337       .     S
C158  C152   1.38337       .     S
C152  C160   1.38811       .     S
C160  C152   1.38811       .     S
C152  C179   1.45848   1_455     S
C179  C152   1.45848   1_655     S
C153  H154   0.97115       .     S
H154  C153   0.97115       .     S
C153  H155   0.97024       .     S
H155  C153   0.97024       .     S
C156  H157   0.93030       .     S
H157  C156   0.93030       .     S
C156  C158   1.36718       .     S
C158  C156   1.36718       .     S
C158  H159   0.92935   1_455     S
H159  C158   0.92934   1_655     S
C160  H161   0.92753       .     S
H161  C160   0.92753       .     S
C160  C162   1.37884       .     S
C162  C160   1.37884       .     S
C162  H163   0.93006       .     S
H163  C162   0.93006       .     S
O164  H165   0.82016       .     S
H165  O164   0.82016       .     S
O164  C178   1.31359       .     S
C178  O164   1.31359       .     S
O166  C178   1.19161       .     S
C178  O166   1.19161       .     S
N167  C180   1.50941       .     S
C180  N167   1.50941       .     S
N167  C183   1.32369       .     S
C183  N167   1.32369       .     S
N167  C189   1.32792       .     S
C189  N167   1.32792       .     S
C168  C170   1.39567       .     S
C170  C168   1.39567       .     S
C168  C172   1.37846       .     S
C172  C168   1.37846       .     S
C168  C178   1.49643       .     S
C178  C168   1.49643       .     S
C169  C174   1.38812       .     S
C174  C169   1.38812       .     S
C169  C176   1.37381       .     S
C176  C169   1.37381       .     S
C169  C180   1.51112       .     S
C180  C169   1.51112       .     S
C170  H171   0.93072       .     S
H171  C170   0.93072       .     S
C170  C174   1.37083       .     S
C174  C170   1.37083       .     S
C172  H173   0.92939       .     S
H173  C172   0.92939       .     S
C172  C176   1.39648       .     S
C176  C172   1.39648       .     S
C174  H175   0.93060       .     S
H175  C174   0.93060       .     S
C176  H177   0.92913       .     S
H177  C176   0.92913       .     S
C179  C185   1.38337       .     S
C185  C179   1.38337       .     S
C179  C187   1.38811       .     S
C187  C179   1.38811       .     S
C180  H181   0.97115       .     S
H181  C180   0.97115       .     S
C180  H182   0.97024       .     S
H182  C180   0.97024       .     S
C183  H184   0.93030       .     S
H184  C183   0.93030       .     S
C183  C185   1.36718       .     S
C185  C183   1.36718       .     S
C185  H186   0.92935   1_655     S
H186  C185   0.92935   1_455     S
C187  H188   0.92753       .     S
H188  C187   0.92753       .     S
C187  C189   1.37884       .     S
C189  C187   1.37884       .     S
C189  H190   0.93007       .     S
H190  C189   0.93007       .     S
O191  H192   0.85049       .     S
H192  O191   0.85049       .     S
O191  H193   0.85085       .     S
H193  O191   0.85085       .     S
O3    H1     0.85842       .     S
H1    O3     0.85842       .     S
O191  H2     2.21147       .     S
H2    O191   2.21147       .     S
O3    H7     0.85090   1_455     S
H7    O3     0.85090   1_655     S
O99   H9     2.24750       .     S
H9    O99    2.24750       .     S
O13   H12    2.07874       .     S
H12   O13    2.07874       .     S
O8    H14    2.20899       .     S
H14   O8     2.20899       .     S
O103  H17    1.59663       .     S
H17   O103   1.59663       .     S
O13   H18    1.80322   1_455     S
H18   O13    1.80322   1_655     S
O102  H45    1.36555       .     S
H45   O102   1.36555       .     S
O123  H72    1.36555       .     S
H72   O123   1.36555       .     S
O103  H76    1.76207       .     S
H76   O103   1.76207       .     S
O103  H79    1.50395       .     S
H79   O103   1.50395       .     S
O92   H104   1.25662       .     S
H104  O92    1.25662       .     S
O113  H125   1.25662       .     S
H125  O113   1.25662       .     S
O129  H128   0.96803       .     S
H128  O129   0.96803       .     S
O129  H131   0.84863       .     S
H131  O129   0.84863       .     S
O81   H192   1.93802   1_655     S
H192  O81    1.93802   1_455     S
O134  H193   1.91603   1_655     S
H193  O134   1.91603   1_455     S
H1    O0     0.84811       .     S
O0    H1     0.84811       .     S
H2    O0     0.85145       .     S
O0    H2     0.85145       .     S
O3    H1     0.85842       .     S
H1    O3     0.85842       .     S
H7    H1     0.57110   1_655     S
H1    H7     0.57110   1_455     S
H4    O3     0.84975       .     S
O3    H4     0.84975       .     S
H5    O3     0.84975   1_655     S
O3    H5     0.84975   1_455     S
H6    O3     0.85089       .     S
O3    H6     0.85089       .     S
H7    O3     0.85090   1_655     S
O3    H7     0.85090   1_455     S
H7    H4     0.67883   1_655     S
H4    H7     0.67883   1_455     S
H6    H5     0.67883   1_455     S
H5    H6     0.67883   1_655     S
H9    O8     0.84896       .     S
O8    H9     0.84896       .     S
H10   O8     0.84896       .     S
O8    H10    0.84896       .     S
H11   O8     0.84935       .     S
O8    H11    0.84935       .     S
H12   O8     0.84935       .     S
O8    H12    0.84935       .     S
H14   O13    0.84207       .     S
O13   H14    0.84207       .     S
H15   O13    0.84139       .     S
O13   H15    0.84139       .     S
H17   O16    0.85048       .     S
O16   H17    0.85048       .     S
H18   O16    0.83938       .     S
O16   H18    0.83938       .     S
C26   O19    1.27598       .     S
O19   C26    1.27598       .     S
C26   O20    1.22919       .     S
O20   C26    1.22919       .     S
C24   C21    1.43288       .     S
C21   C24    1.43288       .     S
C29   C21    1.39609       .     S
C21   C29    1.39609       .     S
C48   C21    1.44124       .     S
C21   C48    1.44124       .     S
C31   N22    1.31703       .     S
N22   C31    1.31703       .     S
C40   N22    1.36535       .     S
N22   C40    1.36535       .     S
C42   N22    1.51012       .     S
N22   C42    1.51012       .     S
C26   C23    1.47485       .     S
C23   C26    1.47485       .     S
C27   C23    1.37229       .     S
C23   C27    1.37229       .     S
C34   C23    1.39662       .     S
C23   C34    1.39662       .     S
H25   C24    0.92876       .     S
C24   H25    0.92876       .     S
C31   C24    1.35976       .     S
C24   C31    1.35976       .     S
H28   C27    0.92986       .     S
C27   H28    0.92986       .     S
C38   C27    1.35031       .     S
C27   C38    1.35031       .     S
H30   C29    0.93126       .     S
C29   H30    0.93126       .     S
C40   C29    1.34362       .     S
C29   C40    1.34362       .     S
H32   C31    0.92974       .     S
C31   H32    0.92974       .     S
C36   C33    1.41493       .     S
C33   C36    1.41493       .     S
C38   C33    1.37755       .     S
C33   C38    1.37755       .     S
C42   C33    1.47645       .     S
C33   C42    1.47645       .     S
H35   C34    0.93011       .     S
C34   H35    0.93011       .     S
C36   C34    1.34774       .     S
C34   C36    1.34774       .     S
H37   C36    0.93024       .     S
C36   H37    0.93024       .     S
H39   C38    0.92932       .     S
C38   H39    0.92932       .     S
H41   C40    0.92895       .     S
C40   H41    0.92895       .     S
H43   C42    0.96942       .     S
C42   H43    0.96942       .     S
H44   C42    0.96924       .     S
C42   H44    0.96924       .     S
C53   O46    1.27598       .     S
O46   C53    1.27598       .     S
C53   O47    1.22918       .     S
O47   C53    1.22918       .     S
C51   C48    1.43288       .     S
C48   C51    1.43288       .     S
C56   C48    1.39609       .     S
C48   C56    1.39609       .     S
C58   N49    1.31703       .     S
N49   C58    1.31703       .     S
C67   N49    1.36535       .     S
N49   C67    1.36535       .     S
C69   N49    1.51012       .     S
N49   C69    1.51012       .     S
C53   C50    1.47484       .     S
C50   C53    1.47484       .     S
C54   C50    1.37229       .     S
C50   C54    1.37229       .     S
C61   C50    1.39662       .     S
C50   C61    1.39662       .     S
H52   C51    0.92876       .     S
C51   H52    0.92876       .     S
C58   C51    1.35976       .     S
C51   C58    1.35976       .     S
H55   C54    0.92986       .     S
C54   H55    0.92986       .     S
C65   C54    1.35032       .     S
C54   C65    1.35032       .     S
H57   C56    0.93126       .     S
C56   H57    0.93126       .     S
C67   C56    1.34362       .     S
C56   C67    1.34362       .     S
H59   C58    0.92974       .     S
C58   H59    0.92974       .     S
C63   C60    1.41493       .     S
C60   C63    1.41493       .     S
C65   C60    1.37755       .     S
C60   C65    1.37755       .     S
C69   C60    1.47645       .     S
C60   C69    1.47645       .     S
H62   C61    0.93011       .     S
C61   H62    0.93011       .     S
C63   C61    1.34774       .     S
C61   C63    1.34774       .     S
H64   C63    0.93024       .     S
C63   H64    0.93024       .     S
H66   C65    0.92932       .     S
C65   H66    0.92932       .     S
H68   C67    0.92896       .     S
C67   H68    0.92896       .     S
H70   C69    0.96942       .     S
C69   H70    0.96942       .     S
H71   C69    0.96925       .     S
C69   H71    0.96925       .     S
O74   H73    0.84993       .     S
H73   O74    0.84993       .     S
H75   O74    0.84898       .     S
O74   H75    0.84898       .     S
H76   O74    0.84898   1_655     S
O74   H76    0.84898   1_455     S
H77   O74    0.84993   1_655     S
O74   H77    0.84993   1_455     S
O78   O74    0.96410   1_655     S
O74   O78    0.96410   1_455     S
H79   O74    1.13601   1_655     S
O74   H79    1.13601   1_455     S
H80   O74    1.18345   1_655     S
O74   H80    1.18345   1_455     S
O78   H76    0.89505       .     S
H76   O78    0.89505       .     S
H79   H76    0.40501       .     S
H76   H79    0.40501       .     S
O78   H77    0.88912       .     S
H77   O78    0.88912       .     S
H79   O78    0.84822       .     S
O78   H79    0.84822       .     S
H80   O78    0.85144       .     S
O78   H80    0.85144       .     S
H82   O81    0.84921       .     S
O81   H82    0.84921       .     S
H83   O81    0.84951       .     S
O81   H83    0.84951       .     S
O86   P84    1.51671   1_655     S
P84   O86    1.51671   1_455     S
O88   P84    1.48862   1_655     S
P84   O88    1.48862   1_455     S
C93   P84    1.82736       .     S
P84   C93    1.82736       .     S
O103  P84    1.52472   1_655     S
P84   O103   1.52472   1_455     S
O92   P85    1.53663       .     S
P85   O92    1.53663       .     S
C98   P85    1.81026       .     S
P85   C98    1.81026       .     S
O99   P85    1.45543       .     S
P85   O99    1.45543       .     S
O102  P85    1.57239       .     S
P85   O102   1.57239       .     S
H87   O86    0.82034       .     S
O86   H87    0.82034       .     S
C90   C89    1.43332       .     S
C89   C90    1.43332       .     S
C93   C89    1.41612       .     S
C89   C93    1.41612       .     S
C94   C89    1.43427       .     S
C89   C94    1.43427       .     S
C91   C90    1.41310       .     S
C90   C91    1.41310       .     S
C111  C90    1.44653       .     S
C90   C111   1.44653       .     S
C96   C91    1.45099       .     S
C91   C96    1.45099       .     S
C98   C91    1.39434       .     S
C91   C98    1.39434       .     S
C100  C93    1.36963       .     S
C93   C100   1.36963       .     S
H95   C94    0.92941       .     S
C94   H95    0.92941       .     S
C117  C94    1.32253       .     S
C94   C117   1.32253       .     S
H97   C96    0.92881       .     S
C96   H97    0.92881       .     S
C115  C96    1.32253       .     S
C96   C115   1.32253       .     S
C100  C98    1.41888       .     S
C98   C100   1.41888       .     S
H101  C100   0.92925       .     S
C100  H101   0.92925       .     S
O107  P105   1.51671       .     S
P105  O107   1.51671       .     S
O109  P105   1.48862       .     S
P105  O109   1.48862       .     S
C114  P105   1.82736       .     S
P105  C114   1.82736       .     S
O124  P105   1.52472       .     S
P105  O124   1.52472       .     S
O113  P106   1.53663       .     S
P106  O113   1.53663       .     S
C119  P106   1.81026       .     S
P106  C119   1.81026       .     S
O120  P106   1.45543       .     S
P106  O120   1.45543       .     S
O123  P106   1.57239       .     S
P106  O123   1.57239       .     S
H108  O107   0.82034       .     S
O107  H108   0.82034       .     S
C111  C110   1.43332       .     S
C110  C111   1.43332       .     S
C114  C110   1.41612       .     S
C110  C114   1.41612       .     S
C115  C110   1.43427       .     S
C110  C115   1.43427       .     S
C112  C111   1.41310       .     S
C111  C112   1.41310       .     S
C117  C112   1.45099       .     S
C112  C117   1.45099       .     S
C119  C112   1.39434       .     S
C112  C119   1.39434       .     S
C121  C114   1.36963       .     S
C114  C121   1.36963       .     S
H116  C115   0.92941       .     S
C115  H116   0.92941       .     S
H118  C117   0.92881       .     S
C117  H118   0.92881       .     S
C121  C119   1.41888       .     S
C119  C121   1.41888       .     S
H122  C121   0.92925       .     S
C121  H122   0.92925       .     S
H127  O126   0.82174       .     S
O126  H127   0.82174       .     S
H128  O126   0.81867       .     S
O126  H128   0.81867       .     S
H131  O126   0.96058       .     S
O126  H131   0.96058       .     S
O129  H128   0.96803       .     S
H128  O129   0.96803       .     S
H131  H128   0.34402       .     S
H128  H131   0.34402       .     S
H130  O129   0.84863       .     S
O129  H130   0.84863       .     S
H131  O129   0.84863       .     S
O129  H131   0.84863       .     S
H132  O129   0.85120       .     S
O129  H132   0.85120       .     S
H133  O129   0.85120       .     S
O129  H133   0.85120       .     S
H135  O134   0.84758       .     S
O134  H135   0.84758       .     S
H136  O134   0.84574       .     S
O134  H136   0.84574       .     S
H138  O137   0.82016       .     S
O137  H138   0.82016       .     S
C151  O137   1.31359       .     S
O137  C151   1.31359       .     S
C151  O139   1.19161       .     S
O139  C151   1.19161       .     S
C153  N140   1.50941       .     S
N140  C153   1.50941       .     S
C156  N140   1.32369       .     S
N140  C156   1.32369       .     S
C162  N140   1.32793       .     S
N140  C162   1.32793       .     S
C143  C141   1.39567       .     S
C141  C143   1.39567       .     S
C145  C141   1.37846       .     S
C141  C145   1.37846       .     S
C151  C141   1.49643       .     S
C141  C151   1.49643       .     S
C147  C142   1.38812       .     S
C142  C147   1.38812       .     S
C149  C142   1.37381       .     S
C142  C149   1.37381       .     S
C153  C142   1.51112       .     S
C142  C153   1.51112       .     S
H144  C143   0.93072       .     S
C143  H144   0.93072       .     S
C147  C143   1.37083       .     S
C143  C147   1.37083       .     S
H146  C145   0.92939       .     S
C145  H146   0.92939       .     S
C149  C145   1.39648       .     S
C145  C149   1.39648       .     S
H148  C147   0.93060       .     S
C147  H148   0.93060       .     S
H150  C149   0.92912       .     S
C149  H150   0.92912       .     S
C158  C152   1.38337       .     S
C152  C158   1.38337       .     S
C160  C152   1.38811       .     S
C152  C160   1.38811       .     S
C179  C152   1.45848   1_655     S
C152  C179   1.45848   1_455     S
H154  C153   0.97115       .     S
C153  H154   0.97115       .     S
H155  C153   0.97024       .     S
C153  H155   0.97024       .     S
H157  C156   0.93030       .     S
C156  H157   0.93030       .     S
C158  C156   1.36718       .     S
C156  C158   1.36718       .     S
H159  C158   0.92934   1_655     S
C158  H159   0.92935   1_455     S
H161  C160   0.92753       .     S
C160  H161   0.92753       .     S
C162  C160   1.37884       .     S
C160  C162   1.37884       .     S
H163  C162   0.93006       .     S
C162  H163   0.93006       .     S
H165  O164   0.82016       .     S
O164  H165   0.82016       .     S
C178  O164   1.31359       .     S
O164  C178   1.31359       .     S
C178  O166   1.19161       .     S
O166  C178   1.19161       .     S
C180  N167   1.50941       .     S
N167  C180   1.50941       .     S
C183  N167   1.32369       .     S
N167  C183   1.32369       .     S
C189  N167   1.32792       .     S
N167  C189   1.32792       .     S
C170  C168   1.39567       .     S
C168  C170   1.39567       .     S
C172  C168   1.37846       .     S
C168  C172   1.37846       .     S
C178  C168   1.49643       .     S
C168  C178   1.49643       .     S
C174  C169   1.38812       .     S
C169  C174   1.38812       .     S
C176  C169   1.37381       .     S
C169  C176   1.37381       .     S
C180  C169   1.51112       .     S
C169  C180   1.51112       .     S
H171  C170   0.93072       .     S
C170  H171   0.93072       .     S
C174  C170   1.37083       .     S
C170  C174   1.37083       .     S
H173  C172   0.92939       .     S
C172  H173   0.92939       .     S
C176  C172   1.39648       .     S
C172  C176   1.39648       .     S
H175  C174   0.93060       .     S
C174  H175   0.93060       .     S
H177  C176   0.92913       .     S
C176  H177   0.92913       .     S
C185  C179   1.38337       .     S
C179  C185   1.38337       .     S
C187  C179   1.38811       .     S
C179  C187   1.38811       .     S
H181  C180   0.97115       .     S
C180  H181   0.97115       .     S
H182  C180   0.97024       .     S
C180  H182   0.97024       .     S
H184  C183   0.93030       .     S
C183  H184   0.93030       .     S
C185  C183   1.36718       .     S
C183  C185   1.36718       .     S
H186  C185   0.92935   1_455     S
C185  H186   0.92935   1_655     S
H188  C187   0.92753       .     S
C187  H188   0.92753       .     S
C189  C187   1.37884       .     S
C187  C189   1.37884       .     S
H190  C189   0.93007       .     S
C189  H190   0.93007       .     S
H192  O191   0.85049       .     S
O191  H192   0.85049       .     S
H193  O191   0.85085       .     S
O191  H193   0.85085       .     S
