data_I
_chemical_name_common  '/data/user2/wty/HOF/MOFDiff/mofdiff/data/test/4-hof-1'
_cell_length_a 20.46600
_cell_length_b 20.46600
_cell_length_c  7.18500
_cell_angle_alpha 90.00000
_cell_angle_beta  90.00000
_cell_angle_gamma 90.00000
_space_group_name_H-M_alt      'P 1'


loop_
_space_group_symop_operation_xyz
  'x, y, z' 

loop_
_atom_site_label
_atom_site_fract_x
_atom_site_fract_y
_atom_site_fract_z
_atom_site_type_symbol
C0         0.0      0.0      0.0     C
C1      0.9682    0.052   0.1287     C
C2      0.0078   0.0802   0.2703     C
C3       0.982   0.1238   0.3908     C
C4       0.917   0.1411   0.3874     C
C5      0.8787   0.1126   0.2517     C
C6      0.9036   0.0688    0.124     C
C7      0.8891   0.1863   0.5308     C
N8       0.929   0.2037   0.6671     N
C9      0.9007   0.2422    0.797     C
N10     0.8385   0.2611    0.798     N
C11     0.8034   0.2404   0.6516     C
N12     0.8274   0.2023   0.5122     N
N13     0.9371   0.2633   0.9388     N
N14     0.7415   0.2579   0.6485     N
H15     0.0516   0.0686   0.2799     H
H16     0.0091   0.1428   0.4794     H
H17     0.8345   0.1233    0.246     H
H18     0.8763   0.0506   0.0345     H
H19     0.9201   0.2876   0.0235     H
H20     0.9777   0.2527   0.9453     H
H21     0.7257   0.2813   0.7373     H
H22     0.7168    0.246   0.5578     H
C23      0.052   0.0318   0.8713     C
C24     0.0802   0.9922   0.7297     C
C25     0.1238    0.018   0.6092     C
C26     0.1411    0.083   0.6126     C
C27     0.1126   0.1213   0.7483     C
C28     0.0688   0.0964    0.876     C
H29     0.0506   0.1237   0.9655     H
H30     0.1233   0.1655    0.754     H
C31     0.1863   0.1109   0.4692     C
N32     0.2037    0.071   0.3329     N
C33     0.2422   0.0993    0.203     C
N34     0.2611   0.1615    0.202     N
C35     0.2404   0.1966   0.3484     C
N36     0.2023   0.1726   0.4878     N
N37     0.2579   0.2585   0.3515     N
H38     0.2813   0.2743   0.2627     H
H39      0.246   0.2832   0.4422     H
N40     0.2633   0.0629   0.0612     N
H41     0.2876   0.0799   0.9765     H
H42     0.2527   0.0223   0.0547     H
H43     0.1428   0.9909   0.5206     H
H44     0.0686   0.9484   0.7201     H
C45     0.0318    0.948   0.1287     C
C46     0.9922   0.9198   0.2703     C
C47      0.018   0.8762   0.3908     C
C48      0.083   0.8589   0.3874     C
C49     0.1213   0.8874   0.2517     C
C50     0.0964   0.9312    0.124     C
H51     0.1237   0.9494   0.0345     H
H52     0.1655   0.8767    0.246     H
C53     0.1109   0.8137   0.5308     C
N54      0.071   0.7963   0.6671     N
C55     0.0993   0.7578    0.797     C
N56     0.1615   0.7389    0.798     N
C57     0.1966   0.7596   0.6516     C
N58     0.1726   0.7977   0.5122     N
N59     0.2585   0.7421   0.6485     N
H60     0.2743   0.7187   0.7373     H
H61     0.2832    0.754   0.5578     H
N62     0.0629   0.7367   0.9388     N
H63     0.0799   0.7124   0.0235     H
H64     0.0223   0.7473   0.9453     H
H65     0.9909   0.8572   0.4794     H
H66     0.9484   0.9314   0.2799     H
C67      0.948   0.9682   0.8713     C
C68     0.9198   0.0078   0.7297     C
C69     0.8762    0.982   0.6092     C
C70     0.8589    0.917   0.6126     C
C71     0.8874   0.8787   0.7483     C
C72     0.9312   0.9036    0.876     C
H73     0.9494   0.8763   0.9655     H
H74     0.8767   0.8345    0.754     H
C75     0.8137   0.8891   0.4692     C
N76     0.7963    0.929   0.3329     N
C77     0.7578   0.9007    0.203     C
N78     0.7389   0.8385    0.202     N
C79     0.7596   0.8034   0.3484     C
N80     0.7977   0.8274   0.4878     N
N81     0.7421   0.7415   0.3515     N
H82     0.7187   0.7257   0.2627     H
H83      0.754   0.7168   0.4422     H
N84     0.7367   0.9371   0.0612     N
H85     0.7124   0.9201   0.9765     H
H86     0.7473   0.9777   0.0547     H
H87     0.8572   0.0091   0.5206     H
H88     0.9314   0.0516   0.7201     H
N89     0.7585   0.2421   0.1485     N
H90     0.7832    0.254   0.0578     H
O91      0.489    0.913    0.233     O
H92      0.461    0.008    0.232     H
O93      0.464    0.977    0.178     O
O94      0.523    0.964    0.322     O
H95      0.492    0.961    0.268     H
C96      0.454    0.965    0.369     C
H97      0.436    0.937    0.459     H
H98      0.462    0.932    0.322     H
O99      0.413    0.011    0.267     O
H100     0.432    0.038    0.178     H
C101     0.465    0.046    0.131     C
H102     0.437    0.064    0.041     H
O103     0.511    0.087    0.233     O
C104     0.546    0.035    0.369     C
H105     0.564    0.063    0.459     H
H106     0.538    0.068    0.322     H
O107     0.587    0.989    0.267     O
O108     0.536    0.023    0.178     O
H109     0.539    0.992    0.232     H
C110     0.535    0.954    0.131     C
H111     0.568    0.962    0.178     H
H112     0.563    0.936    0.041     H
O113     0.477    0.036    0.322     O
H114     0.508    0.039    0.268     H
C115    0.6211   0.1208    0.853     C
H116    0.5977   0.1577    0.905     H
C117     0.604    0.079    0.845     C
H118     0.578     0.04     0.83     H
H119     0.583    0.106    0.937     H
C120     0.665    0.062    0.912     C
H121     0.683      0.1    0.974     H
H122     0.658    0.029    0.008     H
C123    0.7311   0.0794    0.733     C
O124    0.7189   0.0677    0.917     O
H125    0.7618   0.1154    0.727     H
H126    0.7535   0.0413    0.684     H
O127     0.711    0.039    0.801     O
C128    0.6813   0.0934    0.614     C
H129    0.7005   0.1125    0.503     H
C130       0.7    0.054    0.624     C
H131     0.715    0.017     0.55     H
H132     0.729     0.09    0.593     H
O133    0.6317   0.1339     0.67     O
H134    0.6617   0.0523    0.577     H
O135     0.604    0.112    0.677     O
C136     0.636     0.07    0.565     C
H137     0.639    0.088    0.441     H
H138     0.611     0.03    0.557     H
C139    0.6738   0.1081    0.968     C
H140    0.6949   0.1496    0.994     H
H141    0.6564   0.0924    0.086     H
H142    0.5921   0.0834     0.86     H
loop_
_geom_bond_atom_site_label_1
_geom_bond_atom_site_label_2
_geom_bond_distance
_geom_bond_site_symmetry_2
_ccdc_geom_bond_type
H86   O124   2.17012   1_564     S
O124  H86    2.17012   1_546     S
H86   O127   2.33422   1_564     S
O127  H86    2.33422   1_546     S
H90   N10    2.18780   1_554     S
N10   H90    2.18780   1_556     S
H92   O93    0.74621   1_545     S
O93   H92    0.74621   1_565     S
H92   O91    2.02697   1_545     S
O91   H92    2.02697   1_565     S
H92   O94    1.68498   1_545     S
O94   H92    1.68498   1_565     S
H92   O103   1.91345       .     S
O103  H92    1.91345       .     S
H92   O108   1.61272       .     S
O108  H92    1.61272       .     S
H95   O94    0.74621       .     S
O94   H95    0.74621       .     S
H95   O99    1.91345   1_565     S
O99   H95    1.91345   1_545     S
H95   O107   2.02697       .     S
O107  H95    2.02697       .     S
H95   O108   1.68498   1_565     S
O108  H95    1.68498   1_545     S
H95   O113   1.61272   1_565     S
O113  H95    1.61272   1_545     S
H98   O99    1.94318   1_565     S
O99   H98    1.94318   1_545     S
H98   O113   2.15049   1_565     S
O113  H98    2.15049   1_545     S
H100  O103   1.94317       .     S
O103  H100   1.94317       .     S
H100  O108   2.15049       .     S
O108  H100   2.15049       .     S
H106  O94    2.15049   1_545     S
O94   H106   2.15049   1_565     S
H106  O107   1.94317   1_545     S
O107  H106   1.94317   1_565     S
H109  O108   0.74621   1_565     S
O108  H109   0.74621   1_545     S
H109  O103   2.02697   1_565     S
O103  H109   2.02697   1_545     S
H114  O113   0.74621       .     S
O113  H114   0.74621       .     S
H114  O93    1.68498   1_545     S
O93   H114   1.68498   1_565     S
H114  O94    1.61272   1_545     S
O94   H114   1.61272   1_565     S
H114  O99    2.02697       .     S
O99   H114   2.02697       .     S
H114  O107   1.91345   1_545     S
O107  H114   1.91345   1_565     S
C0    C1     1.55282   1_455     S
C1    C0     1.55282   1_655     S
C0    C23    1.55282   1_554     S
C23   C0     1.55282   1_556     S
C0    C45    1.55282   1_545     S
C45   C0     1.55282   1_565     S
C0    C67    1.55282   1_444     S
C67   C0     1.55282   1_666     S
C1    C2     1.42303   1_655     S
C2    C1     1.42303   1_455     S
C1    C6     1.36650       .     S
C6    C1     1.36650       .     S
C2    C3     1.35079   1_455     S
C3    C2     1.35079   1_655     S
C2    H15    0.92988       .     S
H15   C2     0.92988       .     S
C3    C4     1.37682       .     S
C4    C3     1.37682       .     S
C3    H16    0.92955   1_655     S
H16   C3     0.92955   1_455     S
C4    C5     1.38031       .     S
C5    C4     1.38031       .     S
C4    C7     1.49778       .     S
C7    C4     1.49778       .     S
C5    C6     1.38025       .     S
C6    C5     1.38025       .     S
C5    H17    0.93163       .     S
H17   C5     0.93163       .     S
C6    H18    0.92975       .     S
H18   C6     0.92975       .     S
C7    N8     1.32389       .     S
N8    C7     1.32389       .     S
C7    N12    1.31135       .     S
N12   C7     1.31135       .     S
N8    C9     1.35182       .     S
C9    N8     1.35182       .     S
C9    N10    1.33047       .     S
N10   C9     1.33047       .     S
C9    N13    1.33397       .     S
N13   C9     1.33397       .     S
N10   C11    1.34238       .     S
C11   N10    1.34238       .     S
C11   N12    1.36105       .     S
N12   C11    1.36105       .     S
C11   N14    1.31669       .     S
N14   C11    1.31669       .     S
N13   H19    0.85950   1_556     S
H19   N13    0.85950   1_554     S
N13   H20    0.86004       .     S
H20   N13    0.86004       .     S
N14   H21    0.86081       .     S
H21   N14    0.86081       .     S
N14   H22    0.85997       .     S
H22   N14    0.85997       .     S
C23   C24    1.42303   1_545     S
C24   C23    1.42303   1_565     S
C23   C28    1.36650       .     S
C28   C23    1.36650       .     S
C24   C25    1.35079   1_565     S
C25   C24    1.35079   1_545     S
C24   H44    0.92988       .     S
H44   C24    0.92988       .     S
C25   C26    1.37682       .     S
C26   C25    1.37682       .     S
C25   H43    0.92955   1_545     S
H43   C25    0.92955   1_565     S
C26   C27    1.38031       .     S
C27   C26    1.38031       .     S
C26   C31    1.49779       .     S
C31   C26    1.49779       .     S
C27   C28    1.38025       .     S
C28   C27    1.38025       .     S
C27   H30    0.93163       .     S
H30   C27    0.93163       .     S
C28   H29    0.92975       .     S
H29   C28    0.92975       .     S
C31   N32    1.32389       .     S
N32   C31    1.32389       .     S
C31   N36    1.31135       .     S
N36   C31    1.31135       .     S
N32   C33    1.35182       .     S
C33   N32    1.35182       .     S
C33   N34    1.33047       .     S
N34   C33    1.33047       .     S
C33   N40    1.33397       .     S
N40   C33    1.33397       .     S
N34   C35    1.34238       .     S
C35   N34    1.34238       .     S
C35   N36    1.36105       .     S
N36   C35    1.36105       .     S
C35   N37    1.31669       .     S
N37   C35    1.31669       .     S
N37   H38    0.86081       .     S
H38   N37    0.86081       .     S
N37   H39    0.85997       .     S
H39   N37    0.85997       .     S
N40   H41    0.85950   1_554     S
H41   N40    0.85950   1_556     S
N40   H42    0.86004       .     S
H42   N40    0.86004       .     S
C45   C46    1.42303   1_455     S
C46   C45    1.42303   1_655     S
C45   C50    1.36650       .     S
C50   C45    1.36650       .     S
C46   C47    1.35079   1_655     S
C47   C46    1.35079   1_455     S
C46   H66    0.92988       .     S
H66   C46    0.92988       .     S
C47   C48    1.37682       .     S
C48   C47    1.37682       .     S
C47   H65    0.92955   1_455     S
H65   C47    0.92955   1_655     S
C48   C49    1.38031       .     S
C49   C48    1.38031       .     S
C48   C53    1.49779       .     S
C53   C48    1.49779       .     S
C49   C50    1.38025       .     S
C50   C49    1.38025       .     S
C49   H52    0.93163       .     S
H52   C49    0.93163       .     S
C50   H51    0.92975       .     S
H51   C50    0.92975       .     S
C53   N54    1.32389       .     S
N54   C53    1.32389       .     S
C53   N58    1.31135       .     S
N58   C53    1.31135       .     S
N54   C55    1.35182       .     S
C55   N54    1.35182       .     S
C55   N56    1.33047       .     S
N56   C55    1.33047       .     S
C55   N62    1.33397       .     S
N62   C55    1.33397       .     S
N56   C57    1.34238       .     S
C57   N56    1.34238       .     S
C57   N58    1.36105       .     S
N58   C57    1.36105       .     S
C57   N59    1.31669       .     S
N59   C57    1.31669       .     S
N59   H60    0.86081       .     S
H60   N59    0.86081       .     S
N59   H61    0.85997       .     S
H61   N59    0.85997       .     S
N62   H63    0.85950   1_556     S
H63   N62    0.85950   1_554     S
N62   H64    0.86004       .     S
H64   N62    0.86004       .     S
C67   C68    1.42303   1_565     S
C68   C67    1.42303   1_545     S
C67   C72    1.36650       .     S
C72   C67    1.36650       .     S
C68   C69    1.35079   1_545     S
C69   C68    1.35079   1_565     S
C68   H88    0.92988       .     S
H88   C68    0.92988       .     S
C69   C70    1.37682       .     S
C70   C69    1.37682       .     S
C69   H87    0.92955   1_565     S
H87   C69    0.92955   1_545     S
C70   C71    1.38031       .     S
C71   C70    1.38031       .     S
C70   C75    1.49778       .     S
C75   C70    1.49778       .     S
C71   C72    1.38025       .     S
C72   C71    1.38025       .     S
C71   H74    0.93163       .     S
H74   C71    0.93163       .     S
C72   H73    0.92975       .     S
H73   C72    0.92975       .     S
C75   N76    1.32389       .     S
N76   C75    1.32389       .     S
C75   N80    1.31135       .     S
N80   C75    1.31135       .     S
N76   C77    1.35182       .     S
C77   N76    1.35182       .     S
C77   N78    1.33047       .     S
N78   C77    1.33047       .     S
C77   N84    1.33397       .     S
N84   C77    1.33397       .     S
N78   C79    1.34238       .     S
C79   N78    1.34238       .     S
C79   N80    1.36105       .     S
N80   C79    1.36105       .     S
C79   N81    1.31669       .     S
N81   C79    1.31669       .     S
N81   H82    0.86081       .     S
H82   N81    0.86081       .     S
N81   H83    0.85997       .     S
H83   N81    0.85997       .     S
N84   H85    0.85950   1_554     S
H85   N84    0.85950   1_556     S
N84   H86    0.86004       .     S
H86   N84    0.86004       .     S
N89   H90    0.85997       .     S
H90   N89    0.85997       .     S
O91   O93    1.46068       .     S
O93   O91    1.46068       .     S
O91   O94    1.40803       .     S
O94   O91    1.40803       .     S
O91   H95    1.01590       .     S
H95   O91    1.01590       .     S
O91   H98    0.93031       .     S
H98   O91    0.93031       .     S
O91   C110   1.45859       .     S
C110  O91    1.45859       .     S
H92   O93    0.74621   1_545     S
O93   H92    0.74621   1_565     S
H92   C96    1.32813   1_545     S
C96   H92    1.32813   1_565     S
H92   O99    1.01590       .     S
O99   H92    1.01590       .     S
H92   C101   1.06684       .     S
C101  H92    1.06684       .     S
H92   O113   0.92400       .     S
O113  H92    0.92400       .     S
O93   H95    0.92400       .     S
H95   O93    0.92400       .     S
O93   C96    1.40908       .     S
C96   O93    1.40908       .     S
O93   O99    1.40804   1_565     S
O99   O93    1.40803   1_545     S
O93   C101   1.45212   1_565     S
C101  O93    1.45211   1_545     S
O93   C110   1.56431       .     S
C110  O93    1.56431       .     S
O94   H95    0.74621       .     S
H95   O94    0.74621       .     S
O94   C96    1.45211       .     S
C96   O94    1.45211       .     S
O94   C104   1.56431   1_565     S
C104  O94    1.56431   1_545     S
O94   O107   1.46068       .     S
O107  O94    1.46068       .     S
O94   H109   0.92400       .     S
H109  O94    0.92400       .     S
O94   C110   1.40908       .     S
C110  O94    1.40908       .     S
H95   C96    1.06684       .     S
C96   H95    1.06684       .     S
H95   C110   1.32813       .     S
C110  H95    1.32813       .     S
C96   H97    0.93928       .     S
H97   C96    0.93928       .     S
C96   H98    0.77265       .     S
H98   C96    0.77265       .     S
C96   O99    1.45860   1_565     S
O99   C96    1.45860   1_545     S
C96   O113   1.56431   1_565     S
O113  C96    1.56431   1_545     S
O99   H100   0.93031       .     S
H100  O99    0.93031       .     S
O99   O113   1.46068       .     S
O113  O99    1.46068       .     S
H100  C101   0.77264       .     S
C101  H100   0.77264       .     S
C101  H102   0.93928       .     S
H102  C101   0.93928       .     S
C101  O103   1.45859       .     S
O103  C101   1.45859       .     S
C101  O108   1.56431       .     S
O108  C101   1.56431       .     S
C101  O113   1.40908       .     S
O113  C101   1.40908       .     S
C101  H114   1.32813       .     S
H114  C101   1.32813       .     S
O103  H106   0.93031       .     S
H106  O103   0.93031       .     S
O103  O108   1.46068       .     S
O108  O103   1.46068       .     S
O103  O113   1.40803       .     S
O113  O103   1.40803       .     S
O103  H114   1.01590       .     S
H114  O103   1.01590       .     S
C104  H105   0.93928       .     S
H105  C104   0.93928       .     S
C104  H106   0.77264       .     S
H106  C104   0.77264       .     S
C104  O107   1.45860   1_545     S
O107  C104   1.45860   1_565     S
C104  O108   1.40908       .     S
O108  C104   1.40908       .     S
C104  H109   1.32813   1_545     S
H109  C104   1.32813   1_565     S
C104  O113   1.45211       .     S
O113  C104   1.45211       .     S
C104  H114   1.06684       .     S
H114  C104   1.06684       .     S
O107  O108   1.40804   1_565     S
O108  O107   1.40803   1_545     S
O107  H109   1.01590       .     S
H109  O107   1.01590       .     S
O107  H111   0.93031       .     S
H111  O107   0.93031       .     S
O108  H109   0.74621   1_545     S
H109  O108   0.74621   1_565     S
O108  C110   1.45211   1_545     S
C110  O108   1.45212   1_565     S
O108  H114   0.92400       .     S
H114  O108   0.92400       .     S
H109  C110   1.06684       .     S
C110  H109   1.06684       .     S
C110  H111   0.77264       .     S
H111  C110   0.77264       .     S
C110  H112   0.93928       .     S
H112  C110   0.93928       .     S
O113  H114   0.74621       .     S
H114  O113   0.74621       .     S
C115  H116   0.96916       .     S
H116  C115   0.96916       .     S
C115  C117   0.92608       .     S
C117  C115   0.92608       .     S
C115  H119   1.03152       .     S
H119  C115   1.03152       .     S
C115  C120   1.56048       .     S
C120  C115   1.56048       .     S
C115  O133   1.35933       .     S
O133  C115   1.35933       .     S
C115  O135   1.32440       .     S
O135  C115   1.32440       .     S
C115  C139   1.38332       .     S
C139  C115   1.38332       .     S
C115  H142   0.96988       .     S
H142  C115   0.96988       .     S
C117  H118   0.96532       .     S
H118  C117   0.96532       .     S
C117  H119   0.96281       .     S
H119  C117   0.96281       .     S
C117  C120   1.38252       .     S
C120  C117   1.38252       .     S
C117  O135   1.38318       .     S
O135  C117   1.38318       .     S
C117  C139   1.78225       .     S
C139  C117   1.78225       .     S
C117  H142   0.28114       .     S
H142  C117   0.28114       .     S
C120  H121   0.96901       .     S
H121  C120   0.96901       .     S
C120  H122   0.97592   1_556     S
H122  C120   0.97592   1_554     S
C120  O124   1.10985       .     S
O124  C120   1.10985       .     S
C120  O127   1.32058       .     S
O127  C120   1.32058       .     S
C120  C139   1.04139       .     S
C139  C120   1.04139       .     S
H121  O124   1.06983       .     S
O124  H121   1.06983       .     S
H121  C139   0.25454       .     S
C139  H121   0.25454       .     S
C123  O124   1.36655       .     S
O124  C123   1.36655       .     S
C123  H125   0.96926       .     S
H125  C123   0.96926       .     S
C123  H126   0.97063       .     S
H126  C123   0.97063       .     S
C123  O127   1.04479       .     S
O127  C123   1.04479       .     S
C123  C128   1.36086       .     S
C128  C123   1.36086       .     S
C123  C130   1.13521       .     S
C130  C123   1.13521       .     S
C123  H132   1.02992       .     S
H132  C123   1.02992       .     S
O124  O127   1.03238       .     S
O127  O124   1.03238       .     S
O124  C139   1.29224       .     S
C139  O124   1.29224       .     S
H126  O127   1.21056       .     S
O127  H126   1.21056       .     S
H126  C130   1.20510       .     S
C130  H126   1.20510       .     S
O127  C130   1.32750       .     S
C130  O127   1.32750       .     S
C128  H129   0.97122       .     S
H129  C128   0.97122       .     S
C128  C130   0.89546       .     S
C130  C128   0.89546       .     S
C128  H132   0.99027       .     S
H132  C128   0.99027       .     S
C128  O133   1.37090       .     S
O133  C128   1.37090       .     S
C128  H134   0.96908       .     S
H134  C128   0.96908       .     S
C128  C136   1.10129       .     S
C136  C128   1.10129       .     S
C130  H131   0.97486       .     S
H131  C130   0.97486       .     S
C130  H132   0.97196       .     S
H132  C130   0.97196       .     S
C130  H134   0.85420       .     S
H134  C130   0.85420       .     S
C130  C136   1.41512       .     S
C136  C130   1.41512       .     S
O133  O135   0.72443       .     S
O135  O133   0.72443       .     S
O133  C136   1.51234       .     S
C136  O133   1.51234       .     S
H134  C136   0.64444       .     S
C136  H134   0.64444       .     S
O135  C136   1.34735       .     S
C136  O135   1.34735       .     S
C136  H137   0.96605       .     S
H137  C136   0.96605       .     S
C136  H138   0.96709       .     S
H138  C136   0.96709       .     S
C139  H140   0.97096       .     S
H140  C139   0.97096       .     S
C139  H141   0.97410   1_556     S
H141  C139   0.97410   1_554     S
O124  H86    2.17012   1_546     S
H86   O124   2.17012   1_564     S
O127  H86    2.33422   1_546     S
H86   O127   2.33422   1_564     S
N10   H90    2.18780   1_556     S
H90   N10    2.18780   1_554     S
O93   H92    0.74621   1_565     S
H92   O93    0.74621   1_545     S
O91   H92    2.02697   1_565     S
H92   O91    2.02697   1_545     S
O94   H92    1.68498   1_565     S
H92   O94    1.68498   1_545     S
O103  H92    1.91345       .     S
H92   O103   1.91345       .     S
O108  H92    1.61272       .     S
H92   O108   1.61272       .     S
O94   H95    0.74621       .     S
H95   O94    0.74621       .     S
O99   H95    1.91345   1_545     S
H95   O99    1.91345   1_565     S
O107  H95    2.02697       .     S
H95   O107   2.02697       .     S
O108  H95    1.68498   1_545     S
H95   O108   1.68498   1_565     S
O113  H95    1.61272   1_545     S
H95   O113   1.61272   1_565     S
O99   H98    1.94318   1_545     S
H98   O99    1.94318   1_565     S
O113  H98    2.15049   1_545     S
H98   O113   2.15049   1_565     S
O103  H100   1.94317       .     S
H100  O103   1.94317       .     S
O108  H100   2.15049       .     S
H100  O108   2.15049       .     S
O94   H106   2.15049   1_565     S
H106  O94    2.15049   1_545     S
O107  H106   1.94317   1_565     S
H106  O107   1.94317   1_545     S
O108  H109   0.74621   1_545     S
H109  O108   0.74621   1_565     S
O103  H109   2.02697   1_545     S
H109  O103   2.02697   1_565     S
O113  H114   0.74621       .     S
H114  O113   0.74621       .     S
O93   H114   1.68498   1_565     S
H114  O93    1.68498   1_545     S
O94   H114   1.61272   1_565     S
H114  O94    1.61272   1_545     S
O99   H114   2.02697       .     S
H114  O99    2.02697       .     S
O107  H114   1.91345   1_565     S
H114  O107   1.91345   1_545     S
C1    C0     1.55282   1_655     S
C0    C1     1.55282   1_455     S
C23   C0     1.55282   1_556     S
C0    C23    1.55282   1_554     S
C45   C0     1.55282   1_565     S
C0    C45    1.55282   1_545     S
C67   C0     1.55282   1_666     S
C0    C67    1.55282   1_444     S
C2    C1     1.42303   1_455     S
C1    C2     1.42303   1_655     S
C6    C1     1.36650       .     S
C1    C6     1.36650       .     S
C3    C2     1.35079   1_655     S
C2    C3     1.35079   1_455     S
H15   C2     0.92988       .     S
C2    H15    0.92988       .     S
C4    C3     1.37682       .     S
C3    C4     1.37682       .     S
H16   C3     0.92955   1_455     S
C3    H16    0.92955   1_655     S
C5    C4     1.38031       .     S
C4    C5     1.38031       .     S
C7    C4     1.49778       .     S
C4    C7     1.49778       .     S
C6    C5     1.38025       .     S
C5    C6     1.38025       .     S
H17   C5     0.93163       .     S
C5    H17    0.93163       .     S
H18   C6     0.92975       .     S
C6    H18    0.92975       .     S
N8    C7     1.32389       .     S
C7    N8     1.32389       .     S
N12   C7     1.31135       .     S
C7    N12    1.31135       .     S
C9    N8     1.35182       .     S
N8    C9     1.35182       .     S
N10   C9     1.33047       .     S
C9    N10    1.33047       .     S
N13   C9     1.33397       .     S
C9    N13    1.33397       .     S
C11   N10    1.34238       .     S
N10   C11    1.34238       .     S
N12   C11    1.36105       .     S
C11   N12    1.36105       .     S
N14   C11    1.31669       .     S
C11   N14    1.31669       .     S
H19   N13    0.85950   1_554     S
N13   H19    0.85950   1_556     S
H20   N13    0.86004       .     S
N13   H20    0.86004       .     S
H21   N14    0.86081       .     S
N14   H21    0.86081       .     S
H22   N14    0.85997       .     S
N14   H22    0.85997       .     S
C24   C23    1.42303   1_565     S
C23   C24    1.42303   1_545     S
C28   C23    1.36650       .     S
C23   C28    1.36650       .     S
C25   C24    1.35079   1_545     S
C24   C25    1.35079   1_565     S
H44   C24    0.92988       .     S
C24   H44    0.92988       .     S
C26   C25    1.37682       .     S
C25   C26    1.37682       .     S
H43   C25    0.92955   1_565     S
C25   H43    0.92955   1_545     S
C27   C26    1.38031       .     S
C26   C27    1.38031       .     S
C31   C26    1.49779       .     S
C26   C31    1.49779       .     S
C28   C27    1.38025       .     S
C27   C28    1.38025       .     S
H30   C27    0.93163       .     S
C27   H30    0.93163       .     S
H29   C28    0.92975       .     S
C28   H29    0.92975       .     S
N32   C31    1.32389       .     S
C31   N32    1.32389       .     S
N36   C31    1.31135       .     S
C31   N36    1.31135       .     S
C33   N32    1.35182       .     S
N32   C33    1.35182       .     S
N34   C33    1.33047       .     S
C33   N34    1.33047       .     S
N40   C33    1.33397       .     S
C33   N40    1.33397       .     S
C35   N34    1.34238       .     S
N34   C35    1.34238       .     S
N36   C35    1.36105       .     S
C35   N36    1.36105       .     S
N37   C35    1.31669       .     S
C35   N37    1.31669       .     S
H38   N37    0.86081       .     S
N37   H38    0.86081       .     S
H39   N37    0.85997       .     S
N37   H39    0.85997       .     S
H41   N40    0.85950   1_556     S
N40   H41    0.85950   1_554     S
H42   N40    0.86004       .     S
N40   H42    0.86004       .     S
C46   C45    1.42303   1_655     S
C45   C46    1.42303   1_455     S
C50   C45    1.36650       .     S
C45   C50    1.36650       .     S
C47   C46    1.35079   1_455     S
C46   C47    1.35079   1_655     S
H66   C46    0.92988       .     S
C46   H66    0.92988       .     S
C48   C47    1.37682       .     S
C47   C48    1.37682       .     S
H65   C47    0.92955   1_655     S
C47   H65    0.92955   1_455     S
C49   C48    1.38031       .     S
C48   C49    1.38031       .     S
C53   C48    1.49779       .     S
C48   C53    1.49779       .     S
C50   C49    1.38025       .     S
C49   C50    1.38025       .     S
H52   C49    0.93163       .     S
C49   H52    0.93163       .     S
H51   C50    0.92975       .     S
C50   H51    0.92975       .     S
N54   C53    1.32389       .     S
C53   N54    1.32389       .     S
N58   C53    1.31135       .     S
C53   N58    1.31135       .     S
C55   N54    1.35182       .     S
N54   C55    1.35182       .     S
N56   C55    1.33047       .     S
C55   N56    1.33047       .     S
N62   C55    1.33397       .     S
C55   N62    1.33397       .     S
C57   N56    1.34238       .     S
N56   C57    1.34238       .     S
N58   C57    1.36105       .     S
C57   N58    1.36105       .     S
N59   C57    1.31669       .     S
C57   N59    1.31669       .     S
H60   N59    0.86081       .     S
N59   H60    0.86081       .     S
H61   N59    0.85997       .     S
N59   H61    0.85997       .     S
H63   N62    0.85950   1_554     S
N62   H63    0.85950   1_556     S
H64   N62    0.86004       .     S
N62   H64    0.86004       .     S
C68   C67    1.42303   1_545     S
C67   C68    1.42303   1_565     S
C72   C67    1.36650       .     S
C67   C72    1.36650       .     S
C69   C68    1.35079   1_565     S
C68   C69    1.35079   1_545     S
H88   C68    0.92988       .     S
C68   H88    0.92988       .     S
C70   C69    1.37682       .     S
C69   C70    1.37682       .     S
H87   C69    0.92955   1_545     S
C69   H87    0.92955   1_565     S
C71   C70    1.38031       .     S
C70   C71    1.38031       .     S
C75   C70    1.49778       .     S
C70   C75    1.49778       .     S
C72   C71    1.38025       .     S
C71   C72    1.38025       .     S
H74   C71    0.93163       .     S
C71   H74    0.93163       .     S
H73   C72    0.92975       .     S
C72   H73    0.92975       .     S
N76   C75    1.32389       .     S
C75   N76    1.32389       .     S
N80   C75    1.31135       .     S
C75   N80    1.31135       .     S
C77   N76    1.35182       .     S
N76   C77    1.35182       .     S
N78   C77    1.33047       .     S
C77   N78    1.33047       .     S
N84   C77    1.33397       .     S
C77   N84    1.33397       .     S
C79   N78    1.34238       .     S
N78   C79    1.34238       .     S
N80   C79    1.36105       .     S
C79   N80    1.36105       .     S
N81   C79    1.31669       .     S
C79   N81    1.31669       .     S
H82   N81    0.86081       .     S
N81   H82    0.86081       .     S
H83   N81    0.85997       .     S
N81   H83    0.85997       .     S
H85   N84    0.85950   1_556     S
N84   H85    0.85950   1_554     S
H86   N84    0.86004       .     S
N84   H86    0.86004       .     S
H90   N89    0.85997       .     S
N89   H90    0.85997       .     S
O93   O91    1.46068       .     S
O91   O93    1.46068       .     S
O94   O91    1.40803       .     S
O91   O94    1.40803       .     S
H95   O91    1.01590       .     S
O91   H95    1.01590       .     S
H98   O91    0.93031       .     S
O91   H98    0.93031       .     S
C110  O91    1.45859       .     S
O91   C110   1.45859       .     S
O93   H92    0.74621   1_565     S
H92   O93    0.74621   1_545     S
C96   H92    1.32813   1_565     S
H92   C96    1.32813   1_545     S
O99   H92    1.01590       .     S
H92   O99    1.01590       .     S
C101  H92    1.06684       .     S
H92   C101   1.06684       .     S
O113  H92    0.92400       .     S
H92   O113   0.92400       .     S
H95   O93    0.92400       .     S
O93   H95    0.92400       .     S
C96   O93    1.40908       .     S
O93   C96    1.40908       .     S
O99   O93    1.40803   1_545     S
O93   O99    1.40804   1_565     S
C101  O93    1.45211   1_545     S
O93   C101   1.45212   1_565     S
C110  O93    1.56431       .     S
O93   C110   1.56431       .     S
H95   O94    0.74621       .     S
O94   H95    0.74621       .     S
C96   O94    1.45211       .     S
O94   C96    1.45211       .     S
C104  O94    1.56431   1_545     S
O94   C104   1.56431   1_565     S
O107  O94    1.46068       .     S
O94   O107   1.46068       .     S
H109  O94    0.92400       .     S
O94   H109   0.92400       .     S
C110  O94    1.40908       .     S
O94   C110   1.40908       .     S
C96   H95    1.06684       .     S
H95   C96    1.06684       .     S
C110  H95    1.32813       .     S
H95   C110   1.32813       .     S
H97   C96    0.93928       .     S
C96   H97    0.93928       .     S
H98   C96    0.77265       .     S
C96   H98    0.77265       .     S
O99   C96    1.45860   1_545     S
C96   O99    1.45860   1_565     S
O113  C96    1.56431   1_545     S
C96   O113   1.56431   1_565     S
H100  O99    0.93031       .     S
O99   H100   0.93031       .     S
O113  O99    1.46068       .     S
O99   O113   1.46068       .     S
C101  H100   0.77264       .     S
H100  C101   0.77264       .     S
H102  C101   0.93928       .     S
C101  H102   0.93928       .     S
O103  C101   1.45859       .     S
C101  O103   1.45859       .     S
O108  C101   1.56431       .     S
C101  O108   1.56431       .     S
O113  C101   1.40908       .     S
C101  O113   1.40908       .     S
H114  C101   1.32813       .     S
C101  H114   1.32813       .     S
H106  O103   0.93031       .     S
O103  H106   0.93031       .     S
O108  O103   1.46068       .     S
O103  O108   1.46068       .     S
O113  O103   1.40803       .     S
O103  O113   1.40803       .     S
H114  O103   1.01590       .     S
O103  H114   1.01590       .     S
H105  C104   0.93928       .     S
C104  H105   0.93928       .     S
H106  C104   0.77264       .     S
C104  H106   0.77264       .     S
O107  C104   1.45860   1_565     S
C104  O107   1.45860   1_545     S
O108  C104   1.40908       .     S
C104  O108   1.40908       .     S
H109  C104   1.32813   1_565     S
C104  H109   1.32813   1_545     S
O113  C104   1.45211       .     S
C104  O113   1.45211       .     S
H114  C104   1.06684       .     S
C104  H114   1.06684       .     S
O108  O107   1.40803   1_545     S
O107  O108   1.40804   1_565     S
H109  O107   1.01590       .     S
O107  H109   1.01590       .     S
H111  O107   0.93031       .     S
O107  H111   0.93031       .     S
H109  O108   0.74621   1_565     S
O108  H109   0.74621   1_545     S
C110  O108   1.45212   1_565     S
O108  C110   1.45211   1_545     S
H114  O108   0.92400       .     S
O108  H114   0.92400       .     S
C110  H109   1.06684       .     S
H109  C110   1.06684       .     S
H111  C110   0.77264       .     S
C110  H111   0.77264       .     S
H112  C110   0.93928       .     S
C110  H112   0.93928       .     S
H114  O113   0.74621       .     S
O113  H114   0.74621       .     S
H116  C115   0.96916       .     S
C115  H116   0.96916       .     S
C117  C115   0.92608       .     S
C115  C117   0.92608       .     S
H119  C115   1.03152       .     S
C115  H119   1.03152       .     S
C120  C115   1.56048       .     S
C115  C120   1.56048       .     S
O133  C115   1.35933       .     S
C115  O133   1.35933       .     S
O135  C115   1.32440       .     S
C115  O135   1.32440       .     S
C139  C115   1.38332       .     S
C115  C139   1.38332       .     S
H142  C115   0.96988       .     S
C115  H142   0.96988       .     S
H118  C117   0.96532       .     S
C117  H118   0.96532       .     S
H119  C117   0.96281       .     S
C117  H119   0.96281       .     S
C120  C117   1.38252       .     S
C117  C120   1.38252       .     S
O135  C117   1.38318       .     S
C117  O135   1.38318       .     S
C139  C117   1.78225       .     S
C117  C139   1.78225       .     S
H142  C117   0.28114       .     S
C117  H142   0.28114       .     S
H121  C120   0.96901       .     S
C120  H121   0.96901       .     S
H122  C120   0.97592   1_554     S
C120  H122   0.97592   1_556     S
O124  C120   1.10985       .     S
C120  O124   1.10985       .     S
O127  C120   1.32058       .     S
C120  O127   1.32058       .     S
C139  C120   1.04139       .     S
C120  C139   1.04139       .     S
O124  H121   1.06983       .     S
H121  O124   1.06983       .     S
C139  H121   0.25454       .     S
H121  C139   0.25454       .     S
O124  C123   1.36655       .     S
C123  O124   1.36655       .     S
H125  C123   0.96926       .     S
C123  H125   0.96926       .     S
H126  C123   0.97063       .     S
C123  H126   0.97063       .     S
O127  C123   1.04479       .     S
C123  O127   1.04479       .     S
C128  C123   1.36086       .     S
C123  C128   1.36086       .     S
C130  C123   1.13521       .     S
C123  C130   1.13521       .     S
H132  C123   1.02992       .     S
C123  H132   1.02992       .     S
O127  O124   1.03238       .     S
O124  O127   1.03238       .     S
C139  O124   1.29224       .     S
O124  C139   1.29224       .     S
O127  H126   1.21056       .     S
H126  O127   1.21056       .     S
C130  H126   1.20510       .     S
H126  C130   1.20510       .     S
C130  O127   1.32750       .     S
O127  C130   1.32750       .     S
H129  C128   0.97122       .     S
C128  H129   0.97122       .     S
C130  C128   0.89546       .     S
C128  C130   0.89546       .     S
H132  C128   0.99027       .     S
C128  H132   0.99027       .     S
O133  C128   1.37090       .     S
C128  O133   1.37090       .     S
H134  C128   0.96908       .     S
C128  H134   0.96908       .     S
C136  C128   1.10129       .     S
C128  C136   1.10129       .     S
H131  C130   0.97486       .     S
C130  H131   0.97486       .     S
H132  C130   0.97196       .     S
C130  H132   0.97196       .     S
H134  C130   0.85420       .     S
C130  H134   0.85420       .     S
C136  C130   1.41512       .     S
C130  C136   1.41512       .     S
O135  O133   0.72443       .     S
O133  O135   0.72443       .     S
C136  O133   1.51234       .     S
O133  C136   1.51234       .     S
C136  H134   0.64444       .     S
H134  C136   0.64444       .     S
C136  O135   1.34735       .     S
O135  C136   1.34735       .     S
H137  C136   0.96605       .     S
C136  H137   0.96605       .     S
H138  C136   0.96709       .     S
C136  H138   0.96709       .     S
H140  C139   0.97096       .     S
C139  H140   0.97096       .     S
H141  C139   0.97410   1_554     S
C139  H141   0.97410   1_556     S
