data_I
_chemical_name_common  '/data/user2/wty/HOF/MOFDiff/mofdiff/data/test/5-1'
_cell_length_a 26.74550
_cell_length_b 26.74550
_cell_length_c 26.74550
_cell_angle_alpha 90.00000
_cell_angle_beta  90.00000
_cell_angle_gamma 90.00000
_space_group_name_H-M_alt      'P 1'


loop_
_space_group_symop_operation_xyz
  'x, y, z' 

loop_
_atom_site_label
_atom_site_fract_x
_atom_site_fract_y
_atom_site_fract_z
_atom_site_type_symbol
C0      0.8587   0.3284   0.1413     C
N1       0.816   0.3109   0.1244     N
H2      0.7996    0.288   0.1415     H
H3      0.8038    0.322   0.0959     H
N4      0.8838   0.3636   0.1162     N
H5      0.9121   0.3753   0.1282     H
N6      0.8756   0.3109    0.184     N
H7      0.8585    0.288   0.2004     H
H8      0.9041    0.322   0.1962     H
H9      0.8718   0.3753   0.0879     H
H10     0.4316   0.1369   0.1862     H
C11     0.4421   0.1663   0.1663     C
H12     0.4159    0.167   0.1913     H
H13     0.4478   0.1316   0.1552     H
H14     0.4159   0.1913    0.167     H
H15     0.4478   0.1552   0.1316     H
N16     0.4883   0.1855   0.1855     N
O17     0.4492   0.2402   0.2402     O
C18     0.4868   0.2214   0.2214     C
H19     0.5181   0.2333   0.2333     H
C20     0.5363   0.1685   0.1685     C
H21     0.5326   0.1417   0.1418     H
H22     0.5553   0.1561   0.1985     H
H23     0.5553   0.1985   0.1561     H
H24     0.4316   0.1862   0.1369     H
N25     0.7745   0.2255   0.2255     N
O26      0.754    0.246   0.1895     O
O27     0.8105    0.246    0.246     O
O28      0.754   0.1895    0.246     O
S29     0.3151   0.5031  0.89144     S
O30     0.2986   0.4777    0.936     O
O31     0.2806    0.539    0.873     O
O32     0.3675   0.5167   0.8944     O
C33     0.3105    0.347   0.7277     C
C34     0.3099   0.3855   0.7682     C
C35     0.3355   0.4299   0.7609     C
H36     0.3511   0.4366   0.7297     H
C37     0.3382   0.4651   0.7997     C
H38     0.3587    0.494   0.7967     H
C39     0.3099   0.4565    0.843     C
C40     0.2855    0.413   0.8473     C
H41     0.2676   0.4066   0.8773     H
C42     0.2851   0.3775   0.8111     C
H43     0.2673   0.3472    0.816     H
S44     0.5031   0.3151  0.89144     S
O45     0.4777   0.2986    0.936     O
O46      0.539   0.2806    0.873     O
O47     0.5167   0.3675   0.8944     O
C48      0.347   0.3105   0.7277     C
C49     0.3855   0.3099   0.7682     C
C50     0.4299   0.3355   0.7609     C
H51     0.4366   0.3511   0.7297     H
C52     0.4651   0.3382   0.7997     C
H53      0.494   0.3587   0.7967     H
C54     0.4565   0.3099    0.843     C
C55      0.413   0.2855   0.8473     C
H56     0.4066   0.2676   0.8773     H
C57     0.3775   0.2851   0.8111     C
H58     0.3472   0.2673    0.816     H
S59    0.10856   0.5031   0.6849     S
O60      0.064   0.4777   0.7014     O
O61      0.127    0.539   0.7194     O
O62     0.1056   0.5167   0.6325     O
C63     0.2723    0.347   0.6895     C
C64     0.2318   0.3855   0.6901     C
C65     0.2391   0.4299   0.6645     C
H66     0.2703   0.4366   0.6489     H
C67     0.2003   0.4651   0.6618     C
H68     0.2033    0.494   0.6413     H
C69      0.157   0.4565   0.6901     C
C70     0.1527    0.413   0.7145     C
H71     0.1227   0.4066   0.7324     H
C72     0.1889   0.3775   0.7149     C
H73      0.184   0.3472   0.7327     H
S74     0.5031  0.10856   0.6849     S
O75     0.4777    0.064   0.7014     O
O76      0.539    0.127   0.7194     O
O77     0.5167   0.1056   0.6325     O
C78      0.347   0.2723   0.6895     C
C79     0.3855   0.2318   0.6901     C
C80     0.4299   0.2391   0.6645     C
H81     0.4366   0.2703   0.6489     H
C82     0.4651   0.2003   0.6618     C
H83      0.494   0.2033   0.6413     H
C84     0.4565    0.157   0.6901     C
C85      0.413   0.1527   0.7145     C
H86     0.4066   0.1227   0.7324     H
C87     0.3775   0.1889   0.7149     C
H88     0.3472    0.184   0.7327     H
S89    0.10856   0.3151   0.4969     S
O90      0.064   0.2986   0.5223     O
O91      0.127   0.2806    0.461     O
O92     0.1056   0.3675   0.4833     O
C93     0.2723   0.3105    0.653     C
C94     0.2318   0.3099   0.6145     C
C95     0.2391   0.3355   0.5701     C
H96     0.2703   0.3511   0.5634     H
C97     0.2003   0.3382   0.5349     C
H98     0.2033   0.3587    0.506     H
C99      0.157   0.3099   0.5435     C
C100    0.1527   0.2855    0.587     C
H101    0.1227   0.2676   0.5934     H
C102    0.1889   0.2851   0.6225     C
H103     0.184   0.2673   0.6528     H
S104    0.3151  0.10856   0.4969     S
O105    0.2986    0.064   0.5223     O
O106    0.2806    0.127    0.461     O
O107    0.3675   0.1056   0.4833     O
C108    0.3105   0.2723    0.653     C
C109    0.3099   0.2318   0.6145     C
C110    0.3355   0.2391   0.5701     C
H111    0.3511   0.2703   0.5634     H
C112    0.3382   0.2003   0.5349     C
H113    0.3587   0.2033    0.506     H
C114    0.3099    0.157   0.5435     C
C115    0.2855   0.1527    0.587     C
H116    0.2676   0.1227   0.5934     H
C117    0.2851   0.1889   0.6225     C
H118    0.2673    0.184   0.6528     H
Na119      0.0      0.5     0.75    Na
Na120     0.25      0.0      0.5    Na
Na121      0.5      0.0     0.75    Na
Na122      0.0     0.25      0.5    Na
Na123      0.5     0.25      0.0    Na
O124     0.564   0.2014   0.9777     O
S125    0.4969   0.3151  0.10856     S
O126    0.5223   0.2986    0.064     O
O127     0.461   0.2806    0.127     O
O128    0.4833   0.3675   0.1056     O
C129     0.653   0.3105   0.2723     C
C130    0.6145   0.3099   0.2318     C
C131    0.5701   0.3355   0.2391     C
H132    0.5634   0.3511   0.2703     H
C133    0.5349   0.3382   0.2003     C
H134     0.506   0.3587   0.2033     H
C135    0.5435   0.3099    0.157     C
C136     0.587   0.2855   0.1527     C
H137    0.5934   0.2676   0.1227     H
C138    0.6225   0.2851   0.1889     C
H139    0.6528   0.2673    0.184     H
S140    0.6849   0.5031  0.10856     S
O141    0.7014   0.4777    0.064     O
O142    0.7194    0.539    0.127     O
O143    0.6325   0.5167   0.1056     O
C144    0.6895    0.347   0.2723     C
C145    0.6901   0.3855   0.2318     C
C146    0.6645   0.4299   0.2391     C
H147    0.6489   0.4366   0.2703     H
C148    0.6618   0.4651   0.2003     C
H149    0.6413    0.494   0.2033     H
C150    0.6901   0.4565    0.157     C
C151    0.7145    0.413   0.1527     C
H152    0.7324   0.4066   0.1227     H
C153    0.7149   0.3775   0.1889     C
H154    0.7327   0.3472    0.184     H
S155    0.4969  0.10856   0.3151     S
O156    0.5223    0.064   0.2986     O
O157     0.461    0.127   0.2806     O
O158    0.4833   0.1056   0.3675     O
C159     0.653   0.2723   0.3105     C
C160    0.6145   0.2318   0.3099     C
C161    0.5701   0.2391   0.3355     C
H162    0.5634   0.2703   0.3511     H
C163    0.5349   0.2003   0.3382     C
H164     0.506   0.2033   0.3587     H
C165    0.5435    0.157   0.3099     C
C166     0.587   0.1527   0.2855     C
H167    0.5934   0.1227   0.2676     H
C168    0.6225   0.1889   0.2851     C
H169    0.6528    0.184   0.2673     H
S170   0.89144   0.5031   0.3151     S
O171     0.936   0.4777   0.2986     O
O172     0.873    0.539   0.2806     O
O173    0.8944   0.5167   0.3675     O
C174    0.7277    0.347   0.3105     C
C175    0.7682   0.3855   0.3099     C
C176    0.7609   0.4299   0.3355     C
H177    0.7297   0.4366   0.3511     H
C178    0.7997   0.4651   0.3382     C
H179    0.7967    0.494   0.3587     H
C180     0.843   0.4565   0.3099     C
C181    0.8473    0.413   0.2855     C
H182    0.8773   0.4066   0.2676     H
C183    0.8111   0.3775   0.2851     C
H184     0.816   0.3472   0.2673     H
S185    0.6849  0.10856   0.5031     S
O186    0.7014    0.064   0.4777     O
O187    0.7194    0.127    0.539     O
O188    0.6325   0.1056   0.5167     O
C189    0.6895   0.2723    0.347     C
C190    0.6901   0.2318   0.3855     C
C191    0.6645   0.2391   0.4299     C
H192    0.6489   0.2703   0.4366     H
C193    0.6618   0.2003   0.4651     C
H194    0.6413   0.2033    0.494     H
C195    0.6901    0.157   0.4565     C
C196    0.7145   0.1527    0.413     C
H197    0.7324   0.1227   0.4066     H
C198    0.7149   0.1889   0.3775     C
H199    0.7327    0.184   0.3472     H
S200   0.89144   0.3151   0.5031     S
O201     0.936   0.2986   0.4777     O
O202     0.873   0.2806    0.539     O
O203    0.8944   0.3675   0.5167     O
C204    0.7277   0.3105    0.347     C
C205    0.7682   0.3099   0.3855     C
C206    0.7609   0.3355   0.4299     C
H207    0.7297   0.3511   0.4366     H
C208    0.7997   0.3382   0.4651     C
H209    0.7967   0.3587    0.494     H
C210     0.843   0.3099   0.4565     C
C211    0.8473   0.2855    0.413     C
H212    0.8773   0.2676   0.4066     H
C213    0.8111   0.2851   0.3775     C
H214     0.816   0.2673   0.3472     H
Na215      0.0      0.5     0.25    Na
Na216     0.75      0.0      0.5    Na
Na217      0.5      0.0     0.25    Na
Na218     0.75      0.5      0.0    Na
O219    0.7986    0.564   0.0223     O
O220    0.7014   0.5223    0.936     O
O221    0.7986    0.436   0.9777     O
O222     0.436   0.2014   0.0223     O
Na223     0.25      0.5      0.0    Na
O224    0.2014    0.564   0.9777     O
O225    0.2014    0.436   0.0223     O
O226    0.2986   0.5223    0.064     O
loop_
_geom_bond_atom_site_label_1
_geom_bond_atom_site_label_2
_geom_bond_distance
_geom_bond_site_symmetry_2
_ccdc_geom_bond_type
H2    O26    2.09698       .     S
O26   H2     2.09698       .     S
H7    O27    2.09698       .     S
O27   H7     2.09698       .     S
C0    N1     1.31439       .     S
N1    C0     1.31439       .     S
C0    N4     1.33702       .     S
N4    C0     1.33702       .     S
C0    N6     1.31439       .     S
N6    C0     1.31439       .     S
N1    H2     0.88130       .     S
H2    N1     0.88130       .     S
N1    H3     0.88069       .     S
H3    N1     0.88069       .     S
N4    H5     0.87967       .     S
H5    N4     0.87967       .     S
N4    H9     0.87967       .     S
H9    N4     0.87967       .     S
N6    H7     0.88130       .     S
H7    N6     0.88130       .     S
N6    H8     0.88070       .     S
H8    N6     0.88070       .     S
H10   C11    0.99017       .     S
C11   H10    0.99017       .     S
C11   H12    0.96874       .     S
H12   C11    0.96874       .     S
C11   H13    0.98625       .     S
H13   C11    0.98625       .     S
C11   H14    0.96874       .     S
H14   C11    0.96874       .     S
C11   H15    0.98625       .     S
H15   C11    0.98625       .     S
C11   N16    1.43325       .     S
N16   C11    1.43325       .     S
C11   H24    0.99017       .     S
H24   C11    0.99017       .     S
N16   C18    1.35847       .     S
C18   N16    1.35847       .     S
N16   C20    1.43581       .     S
C20   N16    1.43581       .     S
O17   C18    1.23164       .     S
C18   O17    1.23164       .     S
C18   H19    0.95047       .     S
H19   C18    0.95047       .     S
C20   H21    1.01662       .     S
H21   C20    1.01662       .     S
C20   H22    1.00599       .     S
H22   C20    1.00599       .     S
C20   H23    1.00599       .     S
H23   C20    1.00599       .     S
N25   O26    1.23624       .     S
O26   N25    1.23624       .     S
N25   O27    1.23624       .     S
O27   N25    1.23624       .     S
N25   O28    1.23624       .     S
O28   N25    1.23624       .     S
S29   O30    1.44104       .     S
O30   S29    1.44104       .     S
S29   O31    1.42005       .     S
O31   S29    1.42005       .     S
S29   O32    1.45006       .     S
O32   S29    1.45006       .     S
S29   C39    1.80310       .     S
C39   S29    1.80310       .     S
O30   Na223  2.23053   1_556     S
Na223 O30    2.23053   1_554     S
C33   C34    1.49461       .     S
C34   C33    1.49461       .     S
C33   C48    1.38057       .     S
C48   C33    1.38057       .     S
C33   C63    1.44487       .     S
C63   C33    1.44487       .     S
C34   C35    1.38458       .     S
C35   C34    1.38458       .     S
C34   C42    1.34247       .     S
C42   C34    1.34247       .     S
C35   H36    0.95001       .     S
H36   C35    0.95001       .     S
C35   C37    1.40300       .     S
C37   C35    1.40300       .     S
C37   H38    0.95105       .     S
H38   C37    0.95105       .     S
C37   C39    1.40248       .     S
C39   C37    1.40248       .     S
C39   C40    1.33891       .     S
C40   C39    1.33891       .     S
C40   H41    0.94989       .     S
H41   C40    0.94989       .     S
C40   C42    1.35609       .     S
C42   C40    1.35609       .     S
C42   H43    0.94897       .     S
H43   C42    0.94897       .     S
S44   O45    1.44104       .     S
O45   S44    1.44104       .     S
S44   O46    1.42005       .     S
O46   S44    1.42005       .     S
S44   O47    1.45006       .     S
O47   S44    1.45006       .     S
S44   C54    1.80310       .     S
C54   S44    1.80310       .     S
O45   Na123  2.23053   1_556     S
Na123 O45    2.23053   1_554     S
C48   C49    1.49461       .     S
C49   C48    1.49461       .     S
C48   C78    1.44487       .     S
C78   C48    1.44487       .     S
C49   C50    1.38458       .     S
C50   C49    1.38458       .     S
C49   C57    1.34247       .     S
C57   C49    1.34247       .     S
C50   H51    0.95001       .     S
H51   C50    0.95001       .     S
C50   C52    1.40300       .     S
C52   C50    1.40300       .     S
C52   H53    0.95105       .     S
H53   C52    0.95105       .     S
C52   C54    1.40248       .     S
C54   C52    1.40248       .     S
C54   C55    1.33891       .     S
C55   C54    1.33891       .     S
C55   H56    0.94989       .     S
H56   C55    0.94989       .     S
C55   C57    1.35609       .     S
C57   C55    1.35609       .     S
C57   H58    0.94897       .     S
H58   C57    0.94897       .     S
S59   O60    1.44103       .     S
O60   S59    1.44103       .     S
S59   O61    1.42005       .     S
O61   S59    1.42005       .     S
S59   O62    1.45006       .     S
O62   S59    1.45006       .     S
S59   C69    1.80310       .     S
C69   S59    1.80310       .     S
O60   Na119  2.23053       .     S
Na119 O60    2.23053       .     S
C63   C64    1.49461       .     S
C64   C63    1.49461       .     S
C63   C93    1.38057       .     S
C93   C63    1.38057       .     S
C64   C65    1.38458       .     S
C65   C64    1.38458       .     S
C64   C72    1.34247       .     S
C72   C64    1.34247       .     S
C65   H66    0.95001       .     S
H66   C65    0.95001       .     S
C65   C67    1.40300       .     S
C67   C65    1.40300       .     S
C67   H68    0.95105       .     S
H68   C67    0.95105       .     S
C67   C69    1.40248       .     S
C69   C67    1.40248       .     S
C69   C70    1.33891       .     S
C70   C69    1.33891       .     S
C70   H71    0.94989       .     S
H71   C70    0.94989       .     S
C70   C72    1.35609       .     S
C72   C70    1.35609       .     S
C72   H73    0.94897       .     S
H73   C72    0.94897       .     S
S74   O75    1.44103       .     S
O75   S74    1.44103       .     S
S74   O76    1.42005       .     S
O76   S74    1.42005       .     S
S74   O77    1.45006       .     S
O77   S74    1.45006       .     S
S74   C84    1.80310       .     S
C84   S74    1.80310       .     S
O75   Na121  2.23053       .     S
Na121 O75    2.23053       .     S
C78   C79    1.49461       .     S
C79   C78    1.49461       .     S
C78   C108   1.38057       .     S
C108  C78    1.38057       .     S
C79   C80    1.38458       .     S
C80   C79    1.38458       .     S
C79   C87    1.34247       .     S
C87   C79    1.34247       .     S
C80   H81    0.95001       .     S
H81   C80    0.95001       .     S
C80   C82    1.40300       .     S
C82   C80    1.40300       .     S
C82   H83    0.95105       .     S
H83   C82    0.95105       .     S
C82   C84    1.40248       .     S
C84   C82    1.40248       .     S
C84   C85    1.33891       .     S
C85   C84    1.33891       .     S
C85   H86    0.94989       .     S
H86   C85    0.94989       .     S
C85   C87    1.35609       .     S
C87   C85    1.35609       .     S
C87   H88    0.94897       .     S
H88   C87    0.94897       .     S
S89   O90    1.44104       .     S
O90   S89    1.44104       .     S
S89   O91    1.42006       .     S
O91   S89    1.42006       .     S
S89   O92    1.45006       .     S
O92   S89    1.45006       .     S
S89   C99    1.80310       .     S
C99   S89    1.80310       .     S
O90   Na122  2.23052       .     S
Na122 O90    2.23052       .     S
C93   C94    1.49461       .     S
C94   C93    1.49461       .     S
C93   C108   1.44487       .     S
C108  C93    1.44487       .     S
C94   C95    1.38458       .     S
C95   C94    1.38458       .     S
C94   C102   1.34247       .     S
C102  C94    1.34247       .     S
C95   H96    0.95001       .     S
H96   C95    0.95001       .     S
C95   C97    1.40300       .     S
C97   C95    1.40300       .     S
C97   H98    0.95105       .     S
H98   C97    0.95105       .     S
C97   C99    1.40248       .     S
C99   C97    1.40248       .     S
C99   C100   1.33891       .     S
C100  C99    1.33891       .     S
C100  H101   0.94989       .     S
H101  C100   0.94989       .     S
C100  C102   1.35609       .     S
C102  C100   1.35609       .     S
C102  H103   0.94897       .     S
H103  C102   0.94897       .     S
S104  O105   1.44104       .     S
O105  S104   1.44104       .     S
S104  O106   1.42006       .     S
O106  S104   1.42006       .     S
S104  O107   1.45006       .     S
O107  S104   1.45006       .     S
S104  C114   1.80310       .     S
C114  S104   1.80310       .     S
O105  Na120  2.23052       .     S
Na120 O105   2.23052       .     S
C108  C109   1.49461       .     S
C109  C108   1.49461       .     S
C109  C110   1.38458       .     S
C110  C109   1.38458       .     S
C109  C117   1.34247       .     S
C117  C109   1.34247       .     S
C110  H111   0.95001       .     S
H111  C110   0.95001       .     S
C110  C112   1.40300       .     S
C112  C110   1.40300       .     S
C112  H113   0.95105       .     S
H113  C112   0.95105       .     S
C112  C114   1.40248       .     S
C114  C112   1.40248       .     S
C114  C115   1.33891       .     S
C115  C114   1.33891       .     S
C115  H116   0.94989       .     S
H116  C115   0.94989       .     S
C115  C117   1.35609       .     S
C117  C115   1.35609       .     S
C117  H118   0.94897       .     S
H118  C117   0.94897       .     S
Na122 O201   2.23052   1_455     S
O201  Na122  2.23052   1_655     S
Na123 O124   2.23053   1_554     S
O124  Na123  2.23053   1_556     S
Na123 O126   2.23052       .     S
O126  Na123  2.23052       .     S
Na123 O222   2.23052       .     S
O222  Na123  2.23052       .     S
S125  O126   1.44104       .     S
O126  S125   1.44104       .     S
S125  O127   1.42006       .     S
O127  S125   1.42006       .     S
S125  O128   1.45006       .     S
O128  S125   1.45006       .     S
S125  C135   1.80310       .     S
C135  S125   1.80310       .     S
C129  C130   1.49461       .     S
C130  C129   1.49461       .     S
C129  C144   1.38057       .     S
C144  C129   1.38057       .     S
C129  C159   1.44487       .     S
C159  C129   1.44487       .     S
C130  C131   1.38458       .     S
C131  C130   1.38458       .     S
C130  C138   1.34247       .     S
C138  C130   1.34247       .     S
C131  H132   0.95001       .     S
H132  C131   0.95001       .     S
C131  C133   1.40300       .     S
C133  C131   1.40300       .     S
C133  H134   0.95105       .     S
H134  C133   0.95105       .     S
C133  C135   1.40248       .     S
C135  C133   1.40248       .     S
C135  C136   1.33891       .     S
C136  C135   1.33891       .     S
C136  H137   0.94989       .     S
H137  C136   0.94989       .     S
C136  C138   1.35609       .     S
C138  C136   1.35609       .     S
C138  H139   0.94897       .     S
H139  C138   0.94897       .     S
S140  O141   1.44104       .     S
O141  S140   1.44104       .     S
S140  O142   1.42006       .     S
O142  S140   1.42006       .     S
S140  O143   1.45006       .     S
O143  S140   1.45006       .     S
S140  C150   1.80310       .     S
C150  S140   1.80310       .     S
O141  Na218  2.23053       .     S
Na218 O141   2.23053       .     S
C144  C145   1.49461       .     S
C145  C144   1.49461       .     S
C144  C174   1.44487       .     S
C174  C144   1.44487       .     S
C145  C146   1.38458       .     S
C146  C145   1.38458       .     S
C145  C153   1.34247       .     S
C153  C145   1.34247       .     S
C146  H147   0.95001       .     S
H147  C146   0.95001       .     S
C146  C148   1.40300       .     S
C148  C146   1.40300       .     S
C148  H149   0.95105       .     S
H149  C148   0.95105       .     S
C148  C150   1.40248       .     S
C150  C148   1.40248       .     S
C150  C151   1.33891       .     S
C151  C150   1.33891       .     S
C151  H152   0.94989       .     S
H152  C151   0.94989       .     S
C151  C153   1.35609       .     S
C153  C151   1.35609       .     S
C153  H154   0.94897       .     S
H154  C153   0.94897       .     S
S155  O156   1.44104       .     S
O156  S155   1.44104       .     S
S155  O157   1.42006       .     S
O157  S155   1.42006       .     S
S155  O158   1.45006       .     S
O158  S155   1.45006       .     S
S155  C165   1.80310       .     S
C165  S155   1.80310       .     S
O156  Na217  2.23053       .     S
Na217 O156   2.23053       .     S
C159  C160   1.49461       .     S
C160  C159   1.49461       .     S
C159  C189   1.38057       .     S
C189  C159   1.38057       .     S
C160  C161   1.38458       .     S
C161  C160   1.38458       .     S
C160  C168   1.34247       .     S
C168  C160   1.34247       .     S
C161  H162   0.95001       .     S
H162  C161   0.95001       .     S
C161  C163   1.40300       .     S
C163  C161   1.40300       .     S
C163  H164   0.95105       .     S
H164  C163   0.95105       .     S
C163  C165   1.40248       .     S
C165  C163   1.40248       .     S
C165  C166   1.33891       .     S
C166  C165   1.33891       .     S
C166  H167   0.94989       .     S
H167  C166   0.94989       .     S
C166  C168   1.35609       .     S
C168  C166   1.35609       .     S
C168  H169   0.94897       .     S
H169  C168   0.94897       .     S
S170  O171   1.44104       .     S
O171  S170   1.44104       .     S
S170  O172   1.42006       .     S
O172  S170   1.42006       .     S
S170  O173   1.45006       .     S
O173  S170   1.45006       .     S
S170  C180   1.80310       .     S
C180  S170   1.80310       .     S
O171  Na215  2.23052   1_655     S
Na215 O171   2.23053   1_455     S
C174  C175   1.49461       .     S
C175  C174   1.49461       .     S
C174  C204   1.38057       .     S
C204  C174   1.38057       .     S
C175  C176   1.38458       .     S
C176  C175   1.38458       .     S
C175  C183   1.34247       .     S
C183  C175   1.34247       .     S
C176  H177   0.95001       .     S
H177  C176   0.95001       .     S
C176  C178   1.40300       .     S
C178  C176   1.40300       .     S
C178  H179   0.95105       .     S
H179  C178   0.95105       .     S
C178  C180   1.40248       .     S
C180  C178   1.40248       .     S
C180  C181   1.33891       .     S
C181  C180   1.33891       .     S
C181  H182   0.94989       .     S
H182  C181   0.94989       .     S
C181  C183   1.35609       .     S
C183  C181   1.35609       .     S
C183  H184   0.94897       .     S
H184  C183   0.94897       .     S
S185  O186   1.44104       .     S
O186  S185   1.44104       .     S
S185  O187   1.42006       .     S
O187  S185   1.42006       .     S
S185  O188   1.45006       .     S
O188  S185   1.45006       .     S
S185  C195   1.80310       .     S
C195  S185   1.80310       .     S
O186  Na216  2.23053       .     S
Na216 O186   2.23053       .     S
C189  C190   1.49461       .     S
C190  C189   1.49461       .     S
C189  C204   1.44487       .     S
C204  C189   1.44487       .     S
C190  C191   1.38458       .     S
C191  C190   1.38458       .     S
C190  C198   1.34247       .     S
C198  C190   1.34247       .     S
C191  H192   0.95001       .     S
H192  C191   0.95001       .     S
C191  C193   1.40300       .     S
C193  C191   1.40300       .     S
C193  H194   0.95105       .     S
H194  C193   0.95105       .     S
C193  C195   1.40248       .     S
C195  C193   1.40248       .     S
C195  C196   1.33891       .     S
C196  C195   1.33891       .     S
C196  H197   0.94989       .     S
H197  C196   0.94989       .     S
C196  C198   1.35609       .     S
C198  C196   1.35609       .     S
C198  H199   0.94897       .     S
H199  C198   0.94897       .     S
S200  O201   1.44104       .     S
O201  S200   1.44104       .     S
S200  O202   1.42006       .     S
O202  S200   1.42006       .     S
S200  O203   1.45006       .     S
O203  S200   1.45006       .     S
S200  C210   1.80310       .     S
C210  S200   1.80310       .     S
C204  C205   1.49461       .     S
C205  C204   1.49461       .     S
C205  C206   1.38458       .     S
C206  C205   1.38458       .     S
C205  C213   1.34247       .     S
C213  C205   1.34247       .     S
C206  H207   0.95001       .     S
H207  C206   0.95001       .     S
C206  C208   1.40300       .     S
C208  C206   1.40300       .     S
C208  H209   0.95105       .     S
H209  C208   0.95105       .     S
C208  C210   1.40248       .     S
C210  C208   1.40248       .     S
C210  C211   1.33891       .     S
C211  C210   1.33891       .     S
C211  H212   0.94989       .     S
H212  C211   0.94989       .     S
C211  C213   1.35609       .     S
C213  C211   1.35609       .     S
C213  H214   0.94897       .     S
H214  C213   0.94897       .     S
Na218 O219   2.23053       .     S
O219  Na218  2.23053       .     S
Na218 O220   2.23053   1_554     S
O220  Na218  2.23053   1_556     S
Na218 O221   2.23053   1_554     S
O221  Na218  2.23053   1_556     S
Na223 O224   2.23053   1_554     S
O224  Na223  2.23053   1_556     S
Na223 O225   2.23053       .     S
O225  Na223  2.23053       .     S
Na223 O226   2.23052       .     S
O226  Na223  2.23052       .     S
O26   H2     2.09698       .     S
H2    O26    2.09698       .     S
O27   H7     2.09698       .     S
H7    O27    2.09698       .     S
N1    C0     1.31439       .     S
C0    N1     1.31439       .     S
N4    C0     1.33702       .     S
C0    N4     1.33702       .     S
N6    C0     1.31439       .     S
C0    N6     1.31439       .     S
H2    N1     0.88130       .     S
N1    H2     0.88130       .     S
H3    N1     0.88069       .     S
N1    H3     0.88069       .     S
H5    N4     0.87967       .     S
N4    H5     0.87967       .     S
H9    N4     0.87967       .     S
N4    H9     0.87967       .     S
H7    N6     0.88130       .     S
N6    H7     0.88130       .     S
H8    N6     0.88070       .     S
N6    H8     0.88070       .     S
C11   H10    0.99017       .     S
H10   C11    0.99017       .     S
H12   C11    0.96874       .     S
C11   H12    0.96874       .     S
H13   C11    0.98625       .     S
C11   H13    0.98625       .     S
H14   C11    0.96874       .     S
C11   H14    0.96874       .     S
H15   C11    0.98625       .     S
C11   H15    0.98625       .     S
N16   C11    1.43325       .     S
C11   N16    1.43325       .     S
H24   C11    0.99017       .     S
C11   H24    0.99017       .     S
C18   N16    1.35847       .     S
N16   C18    1.35847       .     S
C20   N16    1.43581       .     S
N16   C20    1.43581       .     S
C18   O17    1.23164       .     S
O17   C18    1.23164       .     S
H19   C18    0.95047       .     S
C18   H19    0.95047       .     S
H21   C20    1.01662       .     S
C20   H21    1.01662       .     S
H22   C20    1.00599       .     S
C20   H22    1.00599       .     S
H23   C20    1.00599       .     S
C20   H23    1.00599       .     S
O26   N25    1.23624       .     S
N25   O26    1.23624       .     S
O27   N25    1.23624       .     S
N25   O27    1.23624       .     S
O28   N25    1.23624       .     S
N25   O28    1.23624       .     S
O30   S29    1.44104       .     S
S29   O30    1.44104       .     S
O31   S29    1.42005       .     S
S29   O31    1.42005       .     S
O32   S29    1.45006       .     S
S29   O32    1.45006       .     S
C39   S29    1.80310       .     S
S29   C39    1.80310       .     S
Na223 O30    2.23053   1_554     S
O30   Na223  2.23053   1_556     S
C34   C33    1.49461       .     S
C33   C34    1.49461       .     S
C48   C33    1.38057       .     S
C33   C48    1.38057       .     S
C63   C33    1.44487       .     S
C33   C63    1.44487       .     S
C35   C34    1.38458       .     S
C34   C35    1.38458       .     S
C42   C34    1.34247       .     S
C34   C42    1.34247       .     S
H36   C35    0.95001       .     S
C35   H36    0.95001       .     S
C37   C35    1.40300       .     S
C35   C37    1.40300       .     S
H38   C37    0.95105       .     S
C37   H38    0.95105       .     S
C39   C37    1.40248       .     S
C37   C39    1.40248       .     S
C40   C39    1.33891       .     S
C39   C40    1.33891       .     S
H41   C40    0.94989       .     S
C40   H41    0.94989       .     S
C42   C40    1.35609       .     S
C40   C42    1.35609       .     S
H43   C42    0.94897       .     S
C42   H43    0.94897       .     S
O45   S44    1.44104       .     S
S44   O45    1.44104       .     S
O46   S44    1.42005       .     S
S44   O46    1.42005       .     S
O47   S44    1.45006       .     S
S44   O47    1.45006       .     S
C54   S44    1.80310       .     S
S44   C54    1.80310       .     S
Na123 O45    2.23053   1_554     S
O45   Na123  2.23053   1_556     S
C49   C48    1.49461       .     S
C48   C49    1.49461       .     S
C78   C48    1.44487       .     S
C48   C78    1.44487       .     S
C50   C49    1.38458       .     S
C49   C50    1.38458       .     S
C57   C49    1.34247       .     S
C49   C57    1.34247       .     S
H51   C50    0.95001       .     S
C50   H51    0.95001       .     S
C52   C50    1.40300       .     S
C50   C52    1.40300       .     S
H53   C52    0.95105       .     S
C52   H53    0.95105       .     S
C54   C52    1.40248       .     S
C52   C54    1.40248       .     S
C55   C54    1.33891       .     S
C54   C55    1.33891       .     S
H56   C55    0.94989       .     S
C55   H56    0.94989       .     S
C57   C55    1.35609       .     S
C55   C57    1.35609       .     S
H58   C57    0.94897       .     S
C57   H58    0.94897       .     S
O60   S59    1.44103       .     S
S59   O60    1.44103       .     S
O61   S59    1.42005       .     S
S59   O61    1.42005       .     S
O62   S59    1.45006       .     S
S59   O62    1.45006       .     S
C69   S59    1.80310       .     S
S59   C69    1.80310       .     S
Na119 O60    2.23053       .     S
O60   Na119  2.23053       .     S
C64   C63    1.49461       .     S
C63   C64    1.49461       .     S
C93   C63    1.38057       .     S
C63   C93    1.38057       .     S
C65   C64    1.38458       .     S
C64   C65    1.38458       .     S
C72   C64    1.34247       .     S
C64   C72    1.34247       .     S
H66   C65    0.95001       .     S
C65   H66    0.95001       .     S
C67   C65    1.40300       .     S
C65   C67    1.40300       .     S
H68   C67    0.95105       .     S
C67   H68    0.95105       .     S
C69   C67    1.40248       .     S
C67   C69    1.40248       .     S
C70   C69    1.33891       .     S
C69   C70    1.33891       .     S
H71   C70    0.94989       .     S
C70   H71    0.94989       .     S
C72   C70    1.35609       .     S
C70   C72    1.35609       .     S
H73   C72    0.94897       .     S
C72   H73    0.94897       .     S
O75   S74    1.44103       .     S
S74   O75    1.44103       .     S
O76   S74    1.42005       .     S
S74   O76    1.42005       .     S
O77   S74    1.45006       .     S
S74   O77    1.45006       .     S
C84   S74    1.80310       .     S
S74   C84    1.80310       .     S
Na121 O75    2.23053       .     S
O75   Na121  2.23053       .     S
C79   C78    1.49461       .     S
C78   C79    1.49461       .     S
C108  C78    1.38057       .     S
C78   C108   1.38057       .     S
C80   C79    1.38458       .     S
C79   C80    1.38458       .     S
C87   C79    1.34247       .     S
C79   C87    1.34247       .     S
H81   C80    0.95001       .     S
C80   H81    0.95001       .     S
C82   C80    1.40300       .     S
C80   C82    1.40300       .     S
H83   C82    0.95105       .     S
C82   H83    0.95105       .     S
C84   C82    1.40248       .     S
C82   C84    1.40248       .     S
C85   C84    1.33891       .     S
C84   C85    1.33891       .     S
H86   C85    0.94989       .     S
C85   H86    0.94989       .     S
C87   C85    1.35609       .     S
C85   C87    1.35609       .     S
H88   C87    0.94897       .     S
C87   H88    0.94897       .     S
O90   S89    1.44104       .     S
S89   O90    1.44104       .     S
O91   S89    1.42006       .     S
S89   O91    1.42006       .     S
O92   S89    1.45006       .     S
S89   O92    1.45006       .     S
C99   S89    1.80310       .     S
S89   C99    1.80310       .     S
Na122 O90    2.23052       .     S
O90   Na122  2.23052       .     S
C94   C93    1.49461       .     S
C93   C94    1.49461       .     S
C108  C93    1.44487       .     S
C93   C108   1.44487       .     S
C95   C94    1.38458       .     S
C94   C95    1.38458       .     S
C102  C94    1.34247       .     S
C94   C102   1.34247       .     S
H96   C95    0.95001       .     S
C95   H96    0.95001       .     S
C97   C95    1.40300       .     S
C95   C97    1.40300       .     S
H98   C97    0.95105       .     S
C97   H98    0.95105       .     S
C99   C97    1.40248       .     S
C97   C99    1.40248       .     S
C100  C99    1.33891       .     S
C99   C100   1.33891       .     S
H101  C100   0.94989       .     S
C100  H101   0.94989       .     S
C102  C100   1.35609       .     S
C100  C102   1.35609       .     S
H103  C102   0.94897       .     S
C102  H103   0.94897       .     S
O105  S104   1.44104       .     S
S104  O105   1.44104       .     S
O106  S104   1.42006       .     S
S104  O106   1.42006       .     S
O107  S104   1.45006       .     S
S104  O107   1.45006       .     S
C114  S104   1.80310       .     S
S104  C114   1.80310       .     S
Na120 O105   2.23052       .     S
O105  Na120  2.23052       .     S
C109  C108   1.49461       .     S
C108  C109   1.49461       .     S
C110  C109   1.38458       .     S
C109  C110   1.38458       .     S
C117  C109   1.34247       .     S
C109  C117   1.34247       .     S
H111  C110   0.95001       .     S
C110  H111   0.95001       .     S
C112  C110   1.40300       .     S
C110  C112   1.40300       .     S
H113  C112   0.95105       .     S
C112  H113   0.95105       .     S
C114  C112   1.40248       .     S
C112  C114   1.40248       .     S
C115  C114   1.33891       .     S
C114  C115   1.33891       .     S
H116  C115   0.94989       .     S
C115  H116   0.94989       .     S
C117  C115   1.35609       .     S
C115  C117   1.35609       .     S
H118  C117   0.94897       .     S
C117  H118   0.94897       .     S
O201  Na122  2.23052   1_655     S
Na122 O201   2.23052   1_455     S
O124  Na123  2.23053   1_556     S
Na123 O124   2.23053   1_554     S
O126  Na123  2.23052       .     S
Na123 O126   2.23052       .     S
O222  Na123  2.23052       .     S
Na123 O222   2.23052       .     S
O126  S125   1.44104       .     S
S125  O126   1.44104       .     S
O127  S125   1.42006       .     S
S125  O127   1.42006       .     S
O128  S125   1.45006       .     S
S125  O128   1.45006       .     S
C135  S125   1.80310       .     S
S125  C135   1.80310       .     S
C130  C129   1.49461       .     S
C129  C130   1.49461       .     S
C144  C129   1.38057       .     S
C129  C144   1.38057       .     S
C159  C129   1.44487       .     S
C129  C159   1.44487       .     S
C131  C130   1.38458       .     S
C130  C131   1.38458       .     S
C138  C130   1.34247       .     S
C130  C138   1.34247       .     S
H132  C131   0.95001       .     S
C131  H132   0.95001       .     S
C133  C131   1.40300       .     S
C131  C133   1.40300       .     S
H134  C133   0.95105       .     S
C133  H134   0.95105       .     S
C135  C133   1.40248       .     S
C133  C135   1.40248       .     S
C136  C135   1.33891       .     S
C135  C136   1.33891       .     S
H137  C136   0.94989       .     S
C136  H137   0.94989       .     S
C138  C136   1.35609       .     S
C136  C138   1.35609       .     S
H139  C138   0.94897       .     S
C138  H139   0.94897       .     S
O141  S140   1.44104       .     S
S140  O141   1.44104       .     S
O142  S140   1.42006       .     S
S140  O142   1.42006       .     S
O143  S140   1.45006       .     S
S140  O143   1.45006       .     S
C150  S140   1.80310       .     S
S140  C150   1.80310       .     S
Na218 O141   2.23053       .     S
O141  Na218  2.23053       .     S
C145  C144   1.49461       .     S
C144  C145   1.49461       .     S
C174  C144   1.44487       .     S
C144  C174   1.44487       .     S
C146  C145   1.38458       .     S
C145  C146   1.38458       .     S
C153  C145   1.34247       .     S
C145  C153   1.34247       .     S
H147  C146   0.95001       .     S
C146  H147   0.95001       .     S
C148  C146   1.40300       .     S
C146  C148   1.40300       .     S
H149  C148   0.95105       .     S
C148  H149   0.95105       .     S
C150  C148   1.40248       .     S
C148  C150   1.40248       .     S
C151  C150   1.33891       .     S
C150  C151   1.33891       .     S
H152  C151   0.94989       .     S
C151  H152   0.94989       .     S
C153  C151   1.35609       .     S
C151  C153   1.35609       .     S
H154  C153   0.94897       .     S
C153  H154   0.94897       .     S
O156  S155   1.44104       .     S
S155  O156   1.44104       .     S
O157  S155   1.42006       .     S
S155  O157   1.42006       .     S
O158  S155   1.45006       .     S
S155  O158   1.45006       .     S
C165  S155   1.80310       .     S
S155  C165   1.80310       .     S
Na217 O156   2.23053       .     S
O156  Na217  2.23053       .     S
C160  C159   1.49461       .     S
C159  C160   1.49461       .     S
C189  C159   1.38057       .     S
C159  C189   1.38057       .     S
C161  C160   1.38458       .     S
C160  C161   1.38458       .     S
C168  C160   1.34247       .     S
C160  C168   1.34247       .     S
H162  C161   0.95001       .     S
C161  H162   0.95001       .     S
C163  C161   1.40300       .     S
C161  C163   1.40300       .     S
H164  C163   0.95105       .     S
C163  H164   0.95105       .     S
C165  C163   1.40248       .     S
C163  C165   1.40248       .     S
C166  C165   1.33891       .     S
C165  C166   1.33891       .     S
H167  C166   0.94989       .     S
C166  H167   0.94989       .     S
C168  C166   1.35609       .     S
C166  C168   1.35609       .     S
H169  C168   0.94897       .     S
C168  H169   0.94897       .     S
O171  S170   1.44104       .     S
S170  O171   1.44104       .     S
O172  S170   1.42006       .     S
S170  O172   1.42006       .     S
O173  S170   1.45006       .     S
S170  O173   1.45006       .     S
C180  S170   1.80310       .     S
S170  C180   1.80310       .     S
Na215 O171   2.23053   1_455     S
O171  Na215  2.23052   1_655     S
C175  C174   1.49461       .     S
C174  C175   1.49461       .     S
C204  C174   1.38057       .     S
C174  C204   1.38057       .     S
C176  C175   1.38458       .     S
C175  C176   1.38458       .     S
C183  C175   1.34247       .     S
C175  C183   1.34247       .     S
H177  C176   0.95001       .     S
C176  H177   0.95001       .     S
C178  C176   1.40300       .     S
C176  C178   1.40300       .     S
H179  C178   0.95105       .     S
C178  H179   0.95105       .     S
C180  C178   1.40248       .     S
C178  C180   1.40248       .     S
C181  C180   1.33891       .     S
C180  C181   1.33891       .     S
H182  C181   0.94989       .     S
C181  H182   0.94989       .     S
C183  C181   1.35609       .     S
C181  C183   1.35609       .     S
H184  C183   0.94897       .     S
C183  H184   0.94897       .     S
O186  S185   1.44104       .     S
S185  O186   1.44104       .     S
O187  S185   1.42006       .     S
S185  O187   1.42006       .     S
O188  S185   1.45006       .     S
S185  O188   1.45006       .     S
C195  S185   1.80310       .     S
S185  C195   1.80310       .     S
Na216 O186   2.23053       .     S
O186  Na216  2.23053       .     S
C190  C189   1.49461       .     S
C189  C190   1.49461       .     S
C204  C189   1.44487       .     S
C189  C204   1.44487       .     S
C191  C190   1.38458       .     S
C190  C191   1.38458       .     S
C198  C190   1.34247       .     S
C190  C198   1.34247       .     S
H192  C191   0.95001       .     S
C191  H192   0.95001       .     S
C193  C191   1.40300       .     S
C191  C193   1.40300       .     S
H194  C193   0.95105       .     S
C193  H194   0.95105       .     S
C195  C193   1.40248       .     S
C193  C195   1.40248       .     S
C196  C195   1.33891       .     S
C195  C196   1.33891       .     S
H197  C196   0.94989       .     S
C196  H197   0.94989       .     S
C198  C196   1.35609       .     S
C196  C198   1.35609       .     S
H199  C198   0.94897       .     S
C198  H199   0.94897       .     S
O201  S200   1.44104       .     S
S200  O201   1.44104       .     S
O202  S200   1.42006       .     S
S200  O202   1.42006       .     S
O203  S200   1.45006       .     S
S200  O203   1.45006       .     S
C210  S200   1.80310       .     S
S200  C210   1.80310       .     S
C205  C204   1.49461       .     S
C204  C205   1.49461       .     S
C206  C205   1.38458       .     S
C205  C206   1.38458       .     S
C213  C205   1.34247       .     S
C205  C213   1.34247       .     S
H207  C206   0.95001       .     S
C206  H207   0.95001       .     S
C208  C206   1.40300       .     S
C206  C208   1.40300       .     S
H209  C208   0.95105       .     S
C208  H209   0.95105       .     S
C210  C208   1.40248       .     S
C208  C210   1.40248       .     S
C211  C210   1.33891       .     S
C210  C211   1.33891       .     S
H212  C211   0.94989       .     S
C211  H212   0.94989       .     S
C213  C211   1.35609       .     S
C211  C213   1.35609       .     S
H214  C213   0.94897       .     S
C213  H214   0.94897       .     S
O219  Na218  2.23053       .     S
Na218 O219   2.23053       .     S
O220  Na218  2.23053   1_556     S
Na218 O220   2.23053   1_554     S
O221  Na218  2.23053   1_556     S
Na218 O221   2.23053   1_554     S
O224  Na223  2.23053   1_556     S
Na223 O224   2.23053   1_554     S
O225  Na223  2.23053       .     S
Na223 O225   2.23053       .     S
O226  Na223  2.23052       .     S
Na223 O226   2.23052       .     S
