data_I
_chemical_name_common  '/data/user2/wty/HOF/MOFDiff/mofdiff/data/test/5-11'
_cell_length_a 26.85430
_cell_length_b 26.85430
_cell_length_c 26.85430
_cell_angle_alpha 90.00000
_cell_angle_beta  90.00000
_cell_angle_gamma 90.00000
_space_group_name_H-M_alt      'P 1'


loop_
_space_group_symop_operation_xyz
  'x, y, z' 

loop_
_atom_site_label
_atom_site_fract_x
_atom_site_fract_y
_atom_site_fract_z
_atom_site_type_symbol
N0      0.8192   0.8776   0.6914     N
H1      0.8033   0.8604   0.7143     H
H2      0.8066   0.9058   0.6805     H
N3      0.8861   0.8861   0.6372     N
H4       0.914   0.8738   0.6251     H
C5      0.8612   0.8612   0.6735     C
N6      0.8776   0.8192   0.6914     N
H7      0.8604   0.8033   0.7143     H
H8      0.9058   0.8066   0.6805     H
H9      0.8738    0.914   0.6251     H
O10     0.4323   0.9805   0.7862     O
Na11       0.5      0.0     0.75    Na
S12    0.49605   0.8875   0.6936     S
O13     0.5195   0.9323   0.7138     O
O14     0.4832   0.8938    0.642     O
O15     0.4561   0.8668   0.7251     O
C16     0.6568   0.7301   0.6935     C
C17     0.6169   0.7705   0.6937     C
C18     0.6237   0.8127   0.7179     C
H19     0.6543   0.8181   0.7348     H
C20     0.5874   0.8495   0.7192     C
H21     0.5926    0.879    0.738     H
C22     0.5438    0.843   0.6932     C
C23     0.5367   0.7994   0.6667     C
H24      0.507   0.7946    0.648     H
C25     0.5737   0.7619   0.6676     C
H26     0.5689   0.7314   0.6504     H
S27    0.49605   0.6936   0.8875     S
O28     0.5195   0.7138   0.9323     O
O29     0.4832    0.642   0.8938     O
O30     0.4561   0.7251   0.8668     O
C31     0.6568   0.6935   0.7301     C
C32     0.6169   0.6937   0.7705     C
C33     0.6237   0.7179   0.8127     C
H34     0.6543   0.7348   0.8181     H
C35     0.5874   0.7192   0.8495     C
H36     0.5926    0.738    0.879     H
C37     0.5438   0.6932    0.843     C
C38     0.5367   0.6667   0.7994     C
H39      0.507    0.648   0.7946     H
C40     0.5737   0.6676   0.7619     C
H41     0.5689   0.6504   0.7314     H
S42     0.6936   0.8875  0.49605     S
O43     0.7138   0.9323   0.5195     O
O44      0.642   0.8938   0.4832     O
O45     0.7251   0.8668   0.4561     O
C46     0.6935   0.7301   0.6568     C
C47     0.6937   0.7705   0.6169     C
C48     0.7179   0.8127   0.6237     C
H49     0.7348   0.8181   0.6543     H
C50     0.7192   0.8495   0.5874     C
H51      0.738    0.879   0.5926     H
C52     0.6932    0.843   0.5438     C
C53     0.6667   0.7994   0.5367     C
H54      0.648   0.7946    0.507     H
C55     0.6676   0.7619   0.5737     C
H56     0.6504   0.7314   0.5689     H
S57     0.6936  0.49605   0.8875     S
O58     0.7138   0.5195   0.9323     O
O59      0.642   0.4832   0.8938     O
O60     0.7251   0.4561   0.8668     O
C61     0.6935   0.6568   0.7301     C
C62     0.6937   0.6169   0.7705     C
C63     0.7179   0.6237   0.8127     C
H64     0.7348   0.6543   0.8181     H
C65     0.7192   0.5874   0.8495     C
H66      0.738   0.5926    0.879     H
C67     0.6932   0.5438    0.843     C
C68     0.6667   0.5367   0.7994     C
H69      0.648    0.507   0.7946     H
C70     0.6676   0.5737   0.7619     C
H71     0.6504   0.5689   0.7314     H
S72     0.8875   0.6936  0.49605     S
O73     0.9323   0.7138   0.5195     O
O74     0.8938    0.642   0.4832     O
O75     0.8668   0.7251   0.4561     O
C76     0.7301   0.6935   0.6568     C
C77     0.7705   0.6937   0.6169     C
C78     0.8127   0.7179   0.6237     C
H79     0.8181   0.7348   0.6543     H
C80     0.8495   0.7192   0.5874     C
H81      0.879    0.738   0.5926     H
C82      0.843   0.6932   0.5438     C
C83     0.7994   0.6667   0.5367     C
H84     0.7946    0.648    0.507     H
C85     0.7619   0.6676   0.5737     C
H86     0.7314   0.6504   0.5689     H
S87     0.8875  0.49605   0.6936     S
O88     0.9323   0.5195   0.7138     O
O89     0.8938   0.4832    0.642     O
O90     0.8668   0.4561   0.7251     O
C91     0.7301   0.6568   0.6935     C
C92     0.7705   0.6169   0.6937     C
C93     0.8127   0.6237   0.7179     C
H94     0.8181   0.6543   0.7348     H
C95     0.8495   0.5874   0.7192     C
H96      0.879   0.5926    0.738     H
C97      0.843   0.5438   0.6932     C
C98     0.7994   0.5367   0.6667     C
H99     0.7946    0.507    0.648     H
C100    0.7619   0.5737   0.6676     C
H101    0.7314   0.5689   0.6504     H
Na102      0.5     0.75      0.0    Na
Na103      0.0      0.5     0.75    Na
Na104     0.75      0.5      0.0    Na
Na105      0.0     0.75      0.5    Na
Na106     0.75      0.0      0.5    Na
Na107      0.5     0.25      0.0    Na
S108   0.50395   0.1125   0.6936     S
O109    0.4805   0.0677   0.7138     O
O110    0.5168   0.1062    0.642     O
O111    0.5439   0.1332   0.7251     O
C112    0.3432   0.2699   0.6935     C
C113    0.3831   0.2295   0.6937     C
C114    0.3763   0.1873   0.7179     C
H115    0.3457   0.1819   0.7348     H
C116    0.4126   0.1505   0.7192     C
H117    0.4074    0.121    0.738     H
C118    0.4562    0.157   0.6932     C
C119    0.4633   0.2006   0.6667     C
H120     0.493   0.2054    0.648     H
C121    0.4263   0.2381   0.6676     C
H122    0.4311   0.2686   0.6504     H
S123   0.50395   0.3064   0.8875     S
O124    0.4805   0.2862   0.9323     O
O125    0.5168    0.358   0.8938     O
O126    0.5439   0.2749   0.8668     O
C127    0.3432   0.3065   0.7301     C
C128    0.3831   0.3063   0.7705     C
C129    0.3763   0.2821   0.8127     C
H130    0.3457   0.2652   0.8181     H
C131    0.4126   0.2808   0.8495     C
H132    0.4074    0.262    0.879     H
C133    0.4562   0.3068    0.843     C
C134    0.4633   0.3333   0.7994     C
H135     0.493    0.352   0.7946     H
C136    0.4263   0.3324   0.7619     C
H137    0.4311   0.3496   0.7314     H
S138    0.3064   0.1125  0.49605     S
O139    0.2862   0.0677   0.5195     O
O140     0.358   0.1062   0.4832     O
O141    0.2749   0.1332   0.4561     O
C142    0.3065   0.2699   0.6568     C
C143    0.3063   0.2295   0.6169     C
C144    0.2821   0.1873   0.6237     C
H145    0.2652   0.1819   0.6543     H
C146    0.2808   0.1505   0.5874     C
H147     0.262    0.121   0.5926     H
C148    0.3068    0.157   0.5438     C
C149    0.3333   0.2006   0.5367     C
H150     0.352   0.2054    0.507     H
C151    0.3324   0.2381   0.5737     C
H152    0.3496   0.2686   0.5689     H
S153    0.3064  0.50395   0.8875     S
O154    0.2862   0.4805   0.9323     O
O155     0.358   0.5168   0.8938     O
O156    0.2749   0.5439   0.8668     O
C157    0.3065   0.3432   0.7301     C
C158    0.3063   0.3831   0.7705     C
C159    0.2821   0.3763   0.8127     C
H160    0.2652   0.3457   0.8181     H
C161    0.2808   0.4126   0.8495     C
H162     0.262   0.4074    0.879     H
C163    0.3068   0.4562    0.843     C
C164    0.3333   0.4633   0.7994     C
H165     0.352    0.493   0.7946     H
C166    0.3324   0.4263   0.7619     C
H167    0.3496   0.4311   0.7314     H
S168    0.1125   0.3064  0.49605     S
O169    0.0677   0.2862   0.5195     O
O170    0.1062    0.358   0.4832     O
O171    0.1332   0.2749   0.4561     O
C172    0.2699   0.3065   0.6568     C
C173    0.2295   0.3063   0.6169     C
C174    0.1873   0.2821   0.6237     C
H175    0.1819   0.2652   0.6543     H
C176    0.1505   0.2808   0.5874     C
H177     0.121    0.262   0.5926     H
C178     0.157   0.3068   0.5438     C
C179    0.2006   0.3333   0.5367     C
H180    0.2054    0.352    0.507     H
C181    0.2381   0.3324   0.5737     C
H182    0.2686   0.3496   0.5689     H
S183    0.1125  0.50395   0.6936     S
O184    0.0677   0.4805   0.7138     O
O185    0.1062   0.5168    0.642     O
O186    0.1332   0.5439   0.7251     O
C187    0.2699   0.3432   0.6935     C
C188    0.2295   0.3831   0.6937     C
C189    0.1873   0.3763   0.7179     C
H190    0.1819   0.3457   0.7348     H
C191    0.1505   0.4126   0.7192     C
H192     0.121   0.4074    0.738     H
C193     0.157   0.4562   0.6932     C
C194    0.2006   0.4633   0.6667     C
H195    0.2054    0.493    0.648     H
C196    0.2381   0.4263   0.6676     C
H197    0.2686   0.4311   0.6504     H
Na198     0.25      0.5      0.0    Na
Na199     0.25      0.0      0.5    Na
Na200      0.0     0.25      0.5    Na
O201    0.4323   0.2138   0.0195     O
O202    0.5195   0.2862   0.0677     O
O203    0.5677   0.2138   0.9805     O
O204    0.4805   0.7138   0.0677     O
O205    0.5677   0.7862   0.0195     O
O206    0.5677   0.0195   0.7862     O
O207    0.4323   0.7862   0.9805     O
O208    0.8142   0.7574   0.7574     O
N209    0.7767   0.7767   0.7767     N
O210    0.7574   0.8142   0.7574     O
O211    0.7574   0.7574   0.8142     O
H212    0.6575   0.9549   0.3523     H
C213    0.6559    0.975   0.3716     C
H214    0.6812      0.0   0.3624     H
C215    0.6284    0.975   0.3441     C
H216    0.6477   0.9549   0.3425     H
H217    0.6018   0.9539    0.331     H
O218    0.5515   0.0062   0.4485     O
C219    0.5944   0.9942   0.4367     C
H220     0.616   0.9801   0.4609     H
N221    0.6105   0.0011   0.3895     N
C222    0.5633   0.9942   0.4056     C
H223    0.5391   0.9801    0.384     H
C224     0.635   0.0518    0.386     C
H225    0.6095   0.0776    0.383     H
C226     0.614   0.0518    0.365     C
H227     0.617   0.0776   0.3905     H
H228    0.6551   0.0577    0.416     H
H229    0.6568   0.0528   0.3566     H
H230    0.6434   0.0528   0.3432     H
H231     0.584   0.0577   0.3449     H
Al232      0.5      0.0      0.5    Al
O233       0.5   0.0589      0.5     O
C234    0.5102   0.1023   0.4898     C
C235    0.4898   0.1023   0.5102     C
H236    0.4712   0.1023   0.5402     H
H237    0.5402   0.1023   0.4712     H
H238    0.4598   0.1023   0.5288     H
N239     0.505   0.1506    0.505     N
C240     0.457   0.1874    0.511     C
H241    0.4732   0.2189   0.5193     H
H242    0.4394   0.1747   0.5404     H
C243    0.4458    0.155    0.514     C
H244    0.4369   0.1906   0.5166     H
H245    0.4223   0.1382    0.492     H
H246    0.4443   0.1401   0.5474     H
H247     0.433   0.1927   0.4839     H
N248     0.495   0.1506    0.495     N
C249     0.514    0.155   0.4458     C
H250    0.5166   0.1906   0.4369     H
H251     0.492   0.1382   0.4223     H
H252    0.5474   0.1401   0.4443     H
C253     0.511   0.1874    0.457     C
H254    0.5193   0.2189   0.4732     H
H255    0.5404   0.1747   0.4394     H
C256     0.543   0.1874    0.489     C
H257    0.5268   0.2189   0.4807     H
H258    0.5606   0.1747   0.4596     H
C259    0.5542    0.155    0.486     C
H260    0.5631   0.1906   0.4834     H
H261    0.5777   0.1382    0.508     H
H262    0.5557   0.1401   0.4526     H
H263     0.567   0.1927   0.5161     H
H264    0.4839   0.1927    0.433     H
C265     0.486    0.155   0.5542     C
H266    0.4834   0.1906   0.5631     H
H267     0.508   0.1382   0.5777     H
H268    0.4526   0.1401   0.5557     H
C269     0.489   0.1874    0.543     C
H270    0.4807   0.2189   0.5268     H
H271    0.4596   0.1747   0.5606     H
H272    0.5161   0.1927    0.567     H
H273    0.5288   0.1023   0.4598     H
O274    0.4485   0.0062   0.5515     O
C275    0.4056   0.9942   0.5633     C
H276     0.384   0.9801   0.5391     H
N277    0.3895   0.0011   0.6105     N
C278    0.4367   0.9942   0.5944     C
H279    0.4609   0.9801    0.616     H
C280     0.365   0.0518    0.614     C
H281    0.3905   0.0776    0.617     H
C282     0.386   0.0518    0.635     C
H283     0.383   0.0776   0.6095     H
H284    0.3449   0.0577    0.584     H
H285    0.3432   0.0528   0.6434     H
H286    0.3566   0.0528   0.6568     H
H287     0.416   0.0577   0.6551     H
H288    0.3425   0.9549   0.6477     H
C289    0.3441    0.975   0.6284     C
H290    0.3188      0.0   0.6376     H
C291    0.3716    0.975   0.6559     C
H292    0.3523   0.9549   0.6575     H
H293    0.3624      0.0   0.6812     H
H294    0.3982   0.9539    0.669     H
H295     0.331   0.9539   0.6018     H
O296    0.4485   0.9938   0.4485     O
C297    0.4056   0.0058   0.4367     C
H298     0.384   0.0199   0.4609     H
N299    0.3895   0.9989   0.3895     N
C300    0.4367   0.0058   0.4056     C
H301    0.4609   0.0199    0.384     H
C302    0.3716    0.025   0.3441     C
H303    0.3523   0.0451   0.3425     H
H304    0.3982   0.0461    0.331     H
H305    0.3624      0.0   0.3188     H
H306    0.3425   0.0451   0.3523     H
C307    0.3441    0.025   0.3716     C
H308    0.3188      0.0   0.3624     H
H309     0.331   0.0461   0.3982     H
C310     0.365   0.9482    0.386     C
H311    0.3905   0.9224    0.383     H
C312     0.386   0.9482    0.365     C
H313     0.383   0.9224   0.3905     H
H314    0.3566   0.9472   0.3432     H
H315    0.3432   0.9472   0.3566     H
H316    0.3449   0.9423    0.416     H
H317     0.416   0.9423   0.3449     H
O318    0.5515   0.9938   0.5515     O
C319    0.5944   0.0058   0.5633     C
H320     0.616   0.0199   0.5391     H
N321    0.6105   0.9989   0.6105     N
C322    0.5633   0.0058   0.5944     C
H323    0.5391   0.0199    0.616     H
H324    0.6551   0.9423    0.584     H
C325      0.65    0.976    0.582     C
H326    0.6746   0.9614   0.6047     H
H327    0.6659   0.0008   0.5608     H
H328    0.6359   0.9493   0.5611     H
C329     0.635   0.9482    0.614     C
H330    0.6095   0.9224    0.617     H
C331     0.614   0.9482    0.635     C
H332     0.617   0.9224   0.6095     H
H333    0.6434   0.9472   0.6568     H
H334    0.6568   0.9472   0.6434     H
H335     0.584   0.9423   0.6551     H
C336    0.6284    0.025   0.6559     C
H337    0.6018   0.0461    0.669     H
H338    0.6477   0.0451   0.6575     H
C339     0.604    0.018    0.661     C
H340    0.6028   0.9902   0.6845     H
H341    0.5736   0.0375    0.663     H
H342    0.6329   0.0394   0.6694     H
H343    0.6575   0.0451   0.6477     H
C344    0.6559    0.025   0.6284     C
H345     0.669   0.0461   0.6018     H
H346    0.6812      0.0   0.6376     H
H347    0.6376      0.0   0.6812     H
O348       0.5   0.9411      0.5     O
C349    0.4898   0.8977   0.4898     C
C350    0.5102   0.8977   0.5102     C
H351    0.4598   0.8977   0.4712     H
H352    0.5402   0.8977   0.5288     H
N353     0.495   0.8494    0.505     N
C354     0.486    0.845   0.4458     C
H355    0.4834   0.8094   0.4369     H
H356     0.508   0.8618   0.4223     H
H357    0.4526   0.8599   0.4443     H
C358     0.489   0.8126    0.457     C
H359    0.4807   0.7811   0.4732     H
H360    0.4596   0.8253   0.4394     H
H361    0.5161   0.8073    0.433     H
N362     0.505   0.8494    0.495     N
C363     0.514    0.845   0.5542     C
H364    0.5166   0.8094   0.5631     H
H365     0.492   0.8618   0.5777     H
H366    0.5474   0.8599   0.5557     H
C367     0.511   0.8126    0.543     C
H368    0.5193   0.7811   0.5268     H
H369    0.5404   0.8253   0.5606     H
H370    0.4839   0.8073    0.567     H
C371     0.543   0.8126    0.511     C
H372    0.5268   0.7811   0.5193     H
H373    0.5606   0.8253   0.5404     H
C374    0.5542    0.845    0.514     C
H375    0.5631   0.8094   0.5166     H
H376    0.5777   0.8618    0.492     H
H377    0.5557   0.8599   0.5474     H
H378     0.567   0.8073   0.4839     H
C379     0.457   0.8126    0.489     C
H380    0.4732   0.7811   0.4807     H
H381    0.4394   0.8253   0.4596     H
C382    0.4458    0.845    0.486     C
H383    0.4369   0.8094   0.4834     H
H384    0.4223   0.8618    0.508     H
H385    0.4443   0.8599   0.4526     H
H386     0.433   0.8073   0.5161     H
H387    0.5288   0.8977   0.5402     H
H388    0.4712   0.8977   0.4598     H
H389    0.6376      0.0   0.3188     H
H390     0.669   0.9539   0.3982     H
loop_
_geom_bond_atom_site_label_1
_geom_bond_atom_site_label_2
_geom_bond_distance
_geom_bond_site_symmetry_2
_ccdc_geom_bond_type
H1    O210   2.09719       .     S
O210  H1     2.09719       .     S
H7    O208   2.09719       .     S
O208  H7     2.09719       .     S
N0    H1     0.87968       .     S
H1    N0     0.87968       .     S
N0    H2     0.87958       .     S
H2    N0     0.87958       .     S
N0    C5     1.30274       .     S
C5    N0     1.30274       .     S
N3    H4     0.88093       .     S
H4    N3     0.88093       .     S
N3    C5     1.35812       .     S
C5    N3     1.35812       .     S
N3    H9     0.88093       .     S
H9    N3     0.88093       .     S
C5    N6     1.30274       .     S
N6    C5     1.30274       .     S
N6    H7     0.87968       .     S
H7    N6     0.87968       .     S
N6    H8     0.87958       .     S
H8    N6     0.87958       .     S
O10   Na11   2.12709   1_565     S
Na11  O10    2.12709   1_545     S
Na11  O13    2.12709   1_545     S
O13   Na11   2.12709   1_565     S
Na11  O109   2.12709       .     S
O109  Na11   2.12709       .     S
Na11  O206   2.12709       .     S
O206  Na11   2.12709       .     S
S12   O13    1.46226       .     S
O13   S12    1.46226       .     S
S12   O14    1.43799       .     S
O14   S12    1.43799       .     S
S12   O15    1.47497       .     S
O15   S12    1.47497       .     S
S12   C22    1.75284       .     S
C22   S12    1.75284       .     S
C16   C17    1.52484       .     S
C17   C16    1.52484       .     S
C16   C31    1.38998       .     S
C31   C16    1.38998       .     S
C16   C46    1.39378       .     S
C46   C16    1.39378       .     S
C17   C18    1.31907       .     S
C18   C17    1.31907       .     S
C17   C25    1.37493       .     S
C25   C17    1.37493       .     S
C18   H19    0.94987       .     S
H19   C18    0.94987       .     S
C18   C20    1.38856       .     S
C20   C18    1.38856       .     S
C20   H21    0.94972       .     S
H21   C20    0.94972       .     S
C20   C22    1.37436       .     S
C22   C20    1.37436       .     S
C22   C23    1.38335       .     S
C23   C22    1.38335       .     S
C23   H24    0.95127       .     S
H24   C23    0.95127       .     S
C23   C25    1.41491       .     S
C25   C23    1.41491       .     S
C25   H26    0.94911       .     S
H26   C25    0.94911       .     S
S27   O28    1.46226       .     S
O28   S27    1.46226       .     S
S27   O29    1.43799       .     S
O29   S27    1.43799       .     S
S27   O30    1.47497       .     S
O30   S27    1.47497       .     S
S27   C37    1.75284       .     S
C37   S27    1.75284       .     S
O28   Na102  2.12709   1_556     S
Na102 O28    2.12709   1_554     S
C31   C32    1.52484       .     S
C32   C31    1.52484       .     S
C31   C61    1.39378       .     S
C61   C31    1.39378       .     S
C32   C33    1.31907       .     S
C33   C32    1.31907       .     S
C32   C40    1.37493       .     S
C40   C32    1.37493       .     S
C33   H34    0.94987       .     S
H34   C33    0.94987       .     S
C33   C35    1.38856       .     S
C35   C33    1.38856       .     S
C35   H36    0.94972       .     S
H36   C35    0.94972       .     S
C35   C37    1.37435       .     S
C37   C35    1.37435       .     S
C37   C38    1.38335       .     S
C38   C37    1.38335       .     S
C38   H39    0.95127       .     S
H39   C38    0.95127       .     S
C38   C40    1.41491       .     S
C40   C38    1.41491       .     S
C40   H41    0.94911       .     S
H41   C40    0.94911       .     S
S42   O43    1.46226       .     S
O43   S42    1.46226       .     S
S42   O44    1.43799       .     S
O44   S42    1.43799       .     S
S42   O45    1.47497       .     S
O45   S42    1.47497       .     S
S42   C52    1.75284       .     S
C52   S42    1.75284       .     S
O43   Na106  2.12709   1_565     S
Na106 O43    2.12709   1_545     S
C46   C47    1.52484       .     S
C47   C46    1.52484       .     S
C46   C76    1.38998       .     S
C76   C46    1.38998       .     S
C47   C48    1.31907       .     S
C48   C47    1.31907       .     S
C47   C55    1.37493       .     S
C55   C47    1.37493       .     S
C48   H49    0.94987       .     S
H49   C48    0.94987       .     S
C48   C50    1.38856       .     S
C50   C48    1.38856       .     S
C50   H51    0.94972       .     S
H51   C50    0.94972       .     S
C50   C52    1.37436       .     S
C52   C50    1.37436       .     S
C52   C53    1.38335       .     S
C53   C52    1.38335       .     S
C53   H54    0.95127       .     S
H54   C53    0.95127       .     S
C53   C55    1.41491       .     S
C55   C53    1.41491       .     S
C55   H56    0.94911       .     S
H56   C55    0.94911       .     S
S57   O58    1.46226       .     S
O58   S57    1.46226       .     S
S57   O59    1.43799       .     S
O59   S57    1.43799       .     S
S57   O60    1.47497       .     S
O60   S57    1.47497       .     S
S57   C67    1.75284       .     S
C67   S57    1.75284       .     S
O58   Na104  2.12709   1_556     S
Na104 O58    2.12709   1_554     S
C61   C62    1.52484       .     S
C62   C61    1.52484       .     S
C61   C91    1.38998       .     S
C91   C61    1.38998       .     S
C62   C63    1.31907       .     S
C63   C62    1.31907       .     S
C62   C70    1.37493       .     S
C70   C62    1.37493       .     S
C63   H64    0.94987       .     S
H64   C63    0.94987       .     S
C63   C65    1.38856       .     S
C65   C63    1.38856       .     S
C65   H66    0.94972       .     S
H66   C65    0.94972       .     S
C65   C67    1.37436       .     S
C67   C65    1.37436       .     S
C67   C68    1.38335       .     S
C68   C67    1.38335       .     S
C68   H69    0.95127       .     S
H69   C68    0.95127       .     S
C68   C70    1.41491       .     S
C70   C68    1.41491       .     S
C70   H71    0.94911       .     S
H71   C70    0.94911       .     S
S72   O73    1.46226       .     S
O73   S72    1.46226       .     S
S72   O74    1.43799       .     S
O74   S72    1.43799       .     S
S72   O75    1.47497       .     S
O75   S72    1.47497       .     S
S72   C82    1.75284       .     S
C82   S72    1.75284       .     S
O73   Na105  2.12709   1_655     S
Na105 O73    2.12709   1_455     S
C76   C77    1.52484       .     S
C77   C76    1.52484       .     S
C76   C91    1.39378       .     S
C91   C76    1.39378       .     S
C77   C78    1.31907       .     S
C78   C77    1.31907       .     S
C77   C85    1.37493       .     S
C85   C77    1.37493       .     S
C78   H79    0.94987       .     S
H79   C78    0.94987       .     S
C78   C80    1.38856       .     S
C80   C78    1.38856       .     S
C80   H81    0.94972       .     S
H81   C80    0.94972       .     S
C80   C82    1.37436       .     S
C82   C80    1.37436       .     S
C82   C83    1.38335       .     S
C83   C82    1.38335       .     S
C83   H84    0.95127       .     S
H84   C83    0.95127       .     S
C83   C85    1.41491       .     S
C85   C83    1.41491       .     S
C85   H86    0.94911       .     S
H86   C85    0.94911       .     S
S87   O88    1.46226       .     S
O88   S87    1.46226       .     S
S87   O89    1.43799       .     S
O89   S87    1.43799       .     S
S87   O90    1.47497       .     S
O90   S87    1.47497       .     S
S87   C97    1.75284       .     S
C97   S87    1.75284       .     S
O88   Na103  2.12709   1_655     S
Na103 O88    2.12709   1_455     S
C91   C92    1.52484       .     S
C92   C91    1.52484       .     S
C92   C93    1.31907       .     S
C93   C92    1.31907       .     S
C92   C100   1.37493       .     S
C100  C92    1.37493       .     S
C93   H94    0.94987       .     S
H94   C93    0.94987       .     S
C93   C95    1.38856       .     S
C95   C93    1.38856       .     S
C95   H96    0.94972       .     S
H96   C95    0.94972       .     S
C95   C97    1.37436       .     S
C97   C95    1.37436       .     S
C97   C98    1.38335       .     S
C98   C97    1.38335       .     S
C98   H99    0.95127       .     S
H99   C98    0.95127       .     S
C98   C100   1.41491       .     S
C100  C98    1.41491       .     S
C100  H101   0.94911       .     S
H101  C100   0.94911       .     S
Na102 O204   2.12709       .     S
O204  Na102  2.12709       .     S
Na102 O205   2.12709       .     S
O205  Na102  2.12709       .     S
Na102 O207   2.12709   1_554     S
O207  Na102  2.12709   1_556     S
Na103 O184   2.12709       .     S
O184  Na103  2.12709       .     S
Na107 O124   2.12709   1_554     S
O124  Na107  2.12709   1_556     S
Na107 O201   2.12709       .     S
O201  Na107  2.12709       .     S
Na107 O202   2.12709       .     S
O202  Na107  2.12709       .     S
Na107 O203   2.12709   1_554     S
O203  Na107  2.12709   1_556     S
S108  O109   1.46226       .     S
O109  S108   1.46226       .     S
S108  O110   1.43799       .     S
O110  S108   1.43799       .     S
S108  O111   1.47497       .     S
O111  S108   1.47497       .     S
S108  C118   1.75284       .     S
C118  S108   1.75284       .     S
C112  C113   1.52485       .     S
C113  C112   1.52485       .     S
C112  C127   1.38998       .     S
C127  C112   1.38998       .     S
C112  C142   1.39378       .     S
C142  C112   1.39378       .     S
C113  C114   1.31907       .     S
C114  C113   1.31907       .     S
C113  C121   1.37493       .     S
C121  C113   1.37493       .     S
C114  H115   0.94987       .     S
H115  C114   0.94987       .     S
C114  C116   1.38856       .     S
C116  C114   1.38856       .     S
C116  H117   0.94972       .     S
H117  C116   0.94972       .     S
C116  C118   1.37436       .     S
C118  C116   1.37436       .     S
C118  C119   1.38335       .     S
C119  C118   1.38335       .     S
C119  H120   0.95127       .     S
H120  C119   0.95127       .     S
C119  C121   1.41491       .     S
C121  C119   1.41491       .     S
C121  H122   0.94911       .     S
H122  C121   0.94911       .     S
S123  O124   1.46226       .     S
O124  S123   1.46226       .     S
S123  O125   1.43799       .     S
O125  S123   1.43799       .     S
S123  O126   1.47497       .     S
O126  S123   1.47497       .     S
S123  C133   1.75284       .     S
C133  S123   1.75284       .     S
C127  C128   1.52484       .     S
C128  C127   1.52484       .     S
C127  C157   1.39378       .     S
C157  C127   1.39378       .     S
C128  C129   1.31907       .     S
C129  C128   1.31907       .     S
C128  C136   1.37493       .     S
C136  C128   1.37493       .     S
C129  H130   0.94987       .     S
H130  C129   0.94987       .     S
C129  C131   1.38856       .     S
C131  C129   1.38856       .     S
C131  H132   0.94972       .     S
H132  C131   0.94972       .     S
C131  C133   1.37436       .     S
C133  C131   1.37436       .     S
C133  C134   1.38335       .     S
C134  C133   1.38335       .     S
C134  H135   0.95127       .     S
H135  C134   0.95127       .     S
C134  C136   1.41491       .     S
C136  C134   1.41491       .     S
C136  H137   0.94911       .     S
H137  C136   0.94911       .     S
S138  O139   1.46226       .     S
O139  S138   1.46226       .     S
S138  O140   1.43799       .     S
O140  S138   1.43799       .     S
S138  O141   1.47497       .     S
O141  S138   1.47497       .     S
S138  C148   1.75284       .     S
C148  S138   1.75284       .     S
O139  Na199  2.12709       .     S
Na199 O139   2.12709       .     S
C142  C143   1.52484       .     S
C143  C142   1.52484       .     S
C142  C172   1.38998       .     S
C172  C142   1.38998       .     S
C143  C144   1.31907       .     S
C144  C143   1.31907       .     S
C143  C151   1.37493       .     S
C151  C143   1.37493       .     S
C144  H145   0.94987       .     S
H145  C144   0.94987       .     S
C144  C146   1.38856       .     S
C146  C144   1.38856       .     S
C146  H147   0.94972       .     S
H147  C146   0.94972       .     S
C146  C148   1.37436       .     S
C148  C146   1.37436       .     S
C148  C149   1.38335       .     S
C149  C148   1.38335       .     S
C149  H150   0.95127       .     S
H150  C149   0.95127       .     S
C149  C151   1.41491       .     S
C151  C149   1.41491       .     S
C151  H152   0.94911       .     S
H152  C151   0.94911       .     S
S153  O154   1.46226       .     S
O154  S153   1.46226       .     S
S153  O155   1.43799       .     S
O155  S153   1.43799       .     S
S153  O156   1.47497       .     S
O156  S153   1.47497       .     S
S153  C163   1.75284       .     S
C163  S153   1.75284       .     S
O154  Na198  2.12709   1_556     S
Na198 O154   2.12709   1_554     S
C157  C158   1.52484       .     S
C158  C157   1.52484       .     S
C157  C187   1.38998       .     S
C187  C157   1.38998       .     S
C158  C159   1.31907       .     S
C159  C158   1.31907       .     S
C158  C166   1.37493       .     S
C166  C158   1.37493       .     S
C159  H160   0.94987       .     S
H160  C159   0.94987       .     S
C159  C161   1.38856       .     S
C161  C159   1.38856       .     S
C161  H162   0.94972       .     S
H162  C161   0.94972       .     S
C161  C163   1.37436       .     S
C163  C161   1.37436       .     S
C163  C164   1.38335       .     S
C164  C163   1.38335       .     S
C164  H165   0.95127       .     S
H165  C164   0.95127       .     S
C164  C166   1.41491       .     S
C166  C164   1.41491       .     S
C166  H167   0.94911       .     S
H167  C166   0.94911       .     S
S168  O169   1.46226       .     S
O169  S168   1.46226       .     S
S168  O170   1.43799       .     S
O170  S168   1.43799       .     S
S168  O171   1.47497       .     S
O171  S168   1.47497       .     S
S168  C178   1.75284       .     S
C178  S168   1.75284       .     S
O169  Na200  2.12709       .     S
Na200 O169   2.12709       .     S
C172  C173   1.52484       .     S
C173  C172   1.52484       .     S
C172  C187   1.39378       .     S
C187  C172   1.39378       .     S
C173  C174   1.31907       .     S
C174  C173   1.31907       .     S
C173  C181   1.37493       .     S
C181  C173   1.37493       .     S
C174  H175   0.94987       .     S
H175  C174   0.94987       .     S
C174  C176   1.38856       .     S
C176  C174   1.38856       .     S
C176  H177   0.94972       .     S
H177  C176   0.94972       .     S
C176  C178   1.37436       .     S
C178  C176   1.37436       .     S
C178  C179   1.38335       .     S
C179  C178   1.38335       .     S
C179  H180   0.95127       .     S
H180  C179   0.95127       .     S
C179  C181   1.41491       .     S
C181  C179   1.41491       .     S
C181  H182   0.94911       .     S
H182  C181   0.94911       .     S
S183  O184   1.46226       .     S
O184  S183   1.46226       .     S
S183  O185   1.43799       .     S
O185  S183   1.43799       .     S
S183  O186   1.47497       .     S
O186  S183   1.47497       .     S
S183  C193   1.75284       .     S
C193  S183   1.75284       .     S
C187  C188   1.52484       .     S
C188  C187   1.52484       .     S
C188  C189   1.31907       .     S
C189  C188   1.31907       .     S
C188  C196   1.37493       .     S
C196  C188   1.37493       .     S
C189  H190   0.94987       .     S
H190  C189   0.94987       .     S
C189  C191   1.38856       .     S
C191  C189   1.38856       .     S
C191  H192   0.94972       .     S
H192  C191   0.94972       .     S
C191  C193   1.37436       .     S
C193  C191   1.37436       .     S
C193  C194   1.38335       .     S
C194  C193   1.38335       .     S
C194  H195   0.95127       .     S
H195  C194   0.95127       .     S
C194  C196   1.41491       .     S
C196  C194   1.41491       .     S
C196  H197   0.94911       .     S
H197  C196   0.94911       .     S
O208  N209   1.24554       .     S
N209  O208   1.24554       .     S
N209  O210   1.24554       .     S
O210  N209   1.24554       .     S
N209  O211   1.24554       .     S
O211  N209   1.24554       .     S
H212  C213   0.74955       .     S
C213  H212   0.74955       .     S
H212  C215   0.97495       .     S
C215  H212   0.97495       .     S
H212  H216   0.37218       .     S
H216  H212   0.37218       .     S
C213  H214   0.98659   1_565     S
H214  C213   0.98659   1_545     S
C213  C215   1.04439       .     S
C215  C213   1.04439       .     S
C213  H216   0.97495       .     S
H216  C213   0.97495       .     S
C213  N221   1.48618   1_565     S
N221  C213   1.48618   1_545     S
C213  H390   0.97728       .     S
H390  C213   0.97728       .     S
C215  H216   0.74955       .     S
H216  C215   0.74955       .     S
C215  H217   0.97728       .     S
H217  C215   0.97728       .     S
C215  N221   1.48618   1_565     S
N221  C215   1.48618   1_545     S
C215  H389   0.98659   1_565     S
H389  C215   0.98659   1_545     S
O218  C219   1.23753   1_545     S
C219  O218   1.23753   1_565     S
O218  C222   1.23753   1_545     S
C222  O218   1.23753   1_565     S
O218  Al232  1.96293       .     S
Al232 O218   1.96293       .     S
C219  H220   0.94983       .     S
H220  C219   0.94983       .     S
C219  N221   1.35199   1_565     S
N221  C219   1.35199   1_545     S
C219  C222   1.18111       .     S
C222  C219   1.18111       .     S
N221  C222   1.35199   1_545     S
C222  N221   1.35199   1_565     S
N221  C224   1.51507       .     S
C224  N221   1.51507       .     S
N221  C226   1.51507       .     S
C226  N221   1.51507       .     S
C222  H223   0.94983       .     S
H223  C222   0.94983       .     S
C224  H225   0.97747       .     S
H225  C224   0.97747       .     S
C224  C226   0.79753       .     S
C226  C224   0.79753       .     S
C224  H227   0.85340       .     S
H227  C224   0.85340       .     S
C224  H228   0.98259       .     S
H228  C224   0.98259       .     S
C224  H229   0.98325       .     S
H229  C224   0.98325       .     S
C224  H230   1.17160       .     S
H230  C224   1.17160       .     S
H225  C226   0.85340       .     S
C226  H225   0.85340       .     S
H225  H227   0.28483       .     S
H227  H225   0.28483       .     S
C226  H227   0.97747       .     S
H227  C226   0.97747       .     S
C226  H229   1.17160       .     S
H229  C226   1.17160       .     S
C226  H230   0.98325       .     S
H230  C226   0.98325       .     S
C226  H231   0.98260       .     S
H231  C226   0.98260       .     S
H229  H230   0.50890       .     S
H230  H229   0.50890       .     S
Al232 O233   1.58172       .     S
O233  Al232  1.58172       .     S
Al232 O274   1.96293       .     S
O274  Al232  1.96293       .     S
Al232 O296   1.96293   1_545     S
O296  Al232  1.96293   1_565     S
Al232 O318   1.96293   1_545     S
O318  Al232  1.96293   1_565     S
Al232 O348   1.58172   1_545     S
O348  Al232  1.58172   1_565     S
O233  C234   1.22817       .     S
C234  O233   1.22817       .     S
O233  C235   1.22817       .     S
C235  O233   1.22817       .     S
C234  C235   0.77475       .     S
C235  C234   0.77475       .     S
C234  H237   0.94791       .     S
H237  C234   0.94791       .     S
C234  N239   1.36693       .     S
N239  C234   1.36693       .     S
C234  N248   1.36693       .     S
N248  C234   1.36693       .     S
C234  H273   0.94791       .     S
H273  C234   0.94791       .     S
C235  H236   0.94791       .     S
H236  C235   0.94791       .     S
C235  H238   0.94791       .     S
H238  C235   0.94791       .     S
C235  N239   1.36693       .     S
N239  C235   1.36693       .     S
C235  N248   1.36693       .     S
N248  C235   1.36693       .     S
H236  H238   0.43295       .     S
H238  H236   0.43295       .     S
H237  H273   0.43295       .     S
H273  H237   0.43295       .     S
N239  C240   1.63221       .     S
C240  N239   1.63221       .     S
N239  C243   1.61238       .     S
C243  N239   1.61238       .     S
N239  N248   0.37978       .     S
N248  N239   0.37978       .     S
N239  C249   1.61238       .     S
C249  N239   1.61238       .     S
N239  C253   1.63221       .     S
C253  N239   1.63221       .     S
N239  C256   1.48411       .     S
C256  N239   1.48411       .     S
N239  C259   1.42125       .     S
C259  N239   1.42125       .     S
N239  C265   1.42125       .     S
C265  N239   1.42125       .     S
N239  C269   1.48411       .     S
C269  N239   1.48411       .     S
C240  H241   0.97699       .     S
H241  C240   0.97699       .     S
C240  H242   0.98134       .     S
H242  C240   0.98134       .     S
C240  C243   0.92412       .     S
C243  C240   0.92412       .     S
C240  H244   0.56688       .     S
H244  C240   0.56688       .     S
C240  H247   0.98248       .     S
H247  C240   0.98248       .     S
C240  N248   1.48411       .     S
N248  C240   1.48411       .     S
C240  C265   1.64602       .     S
C265  C240   1.64602       .     S
C240  C269   1.21529       .     S
C269  C240   1.21529       .     S
C240  H270   1.14046       .     S
H270  C240   1.14046       .     S
H241  C269   1.14046       .     S
C269  H241   1.14046       .     S
H241  H270   0.28483       .     S
H270  H241   0.28483       .     S
H242  C243   0.90113       .     S
C243  H242   0.90113       .     S
C243  H244   0.98791       .     S
H244  C243   0.98791       .     S
C243  H245   0.97511       .     S
H245  C243   0.97511       .     S
C243  H246   0.98296       .     S
H246  C243   0.98296       .     S
C243  N248   1.42125       .     S
N248  C243   1.42125       .     S
C243  C265   1.52670       .     S
C265  C243   1.52670       .     S
C243  H268   1.20310       .     S
H268  C243   1.20310       .     S
C243  C269   1.64602       .     S
C269  C243   1.64602       .     S
H246  C265   1.20310       .     S
C265  H246   1.20310       .     S
H246  H268   0.31522       .     S
H268  H246   0.31522       .     S
N248  C249   1.42125       .     S
C249  N248   1.42125       .     S
N248  C253   1.48411       .     S
C253  N248   1.48411       .     S
N248  C256   1.63221       .     S
C256  N248   1.63221       .     S
N248  C259   1.61238       .     S
C259  N248   1.61238       .     S
N248  C265   1.61238       .     S
C265  N248   1.61238       .     S
N248  C269   1.63221       .     S
C269  N248   1.63221       .     S
C249  H250   0.98791       .     S
H250  C249   0.98791       .     S
C249  H251   0.97511       .     S
H251  C249   0.97511       .     S
C249  H252   0.98296       .     S
H252  C249   0.98296       .     S
C249  C253   0.92412       .     S
C253  C249   0.92412       .     S
C249  H255   0.90113       .     S
H255  C249   0.90113       .     S
C249  C256   1.64602       .     S
C256  C249   1.64602       .     S
C249  C259   1.52670       .     S
C259  C249   1.52670       .     S
C249  H262   1.20310       .     S
H262  C249   1.20310       .     S
H250  C253   0.56688       .     S
C253  H250   0.56688       .     S
H252  C259   1.20310       .     S
C259  H252   1.20310       .     S
H252  H262   0.31522       .     S
H262  H252   0.31522       .     S
C253  H254   0.97699       .     S
H254  C253   0.97699       .     S
C253  H255   0.98134       .     S
H255  C253   0.98134       .     S
C253  C256   1.21529       .     S
C256  C253   1.21529       .     S
C253  H257   1.14046       .     S
H257  C253   1.14046       .     S
C253  C259   1.64602       .     S
C259  C253   1.64602       .     S
C253  H264   0.98248       .     S
H264  C253   0.98248       .     S
H254  C256   1.14046       .     S
C256  H254   1.14046       .     S
H254  H257   0.28483       .     S
H257  H254   0.28483       .     S
C256  H257   0.97699       .     S
H257  C256   0.97699       .     S
C256  H258   0.98134       .     S
H258  C256   0.98134       .     S
C256  C259   0.92412       .     S
C259  C256   0.92412       .     S
C256  H260   0.56688       .     S
H260  C256   0.56688       .     S
C256  H263   0.98248       .     S
H263  C256   0.98248       .     S
H258  C259   0.90112       .     S
C259  H258   0.90112       .     S
C259  H260   0.98791       .     S
H260  C259   0.98791       .     S
C259  H261   0.97511       .     S
H261  C259   0.97511       .     S
C259  H262   0.98296       .     S
H262  C259   0.98296       .     S
C265  H266   0.98791       .     S
H266  C265   0.98791       .     S
C265  H267   0.97511       .     S
H267  C265   0.97511       .     S
C265  H268   0.98296       .     S
H268  C265   0.98296       .     S
C265  C269   0.92412       .     S
C269  C265   0.92412       .     S
C265  H271   0.90112       .     S
H271  C265   0.90112       .     S
H266  C269   0.56688       .     S
C269  H266   0.56688       .     S
C269  H270   0.97699       .     S
H270  C269   0.97699       .     S
C269  H271   0.98134       .     S
H271  C269   0.98134       .     S
C269  H272   0.98248       .     S
H272  C269   0.98248       .     S
O274  C275   1.23753   1_545     S
C275  O274   1.23753   1_565     S
O274  C278   1.23753   1_545     S
C278  O274   1.23753   1_565     S
C275  H276   0.94983       .     S
H276  C275   0.94983       .     S
C275  N277   1.35199   1_565     S
N277  C275   1.35199   1_545     S
C275  C278   1.18111       .     S
C278  C275   1.18111       .     S
N277  C278   1.35199   1_545     S
C278  N277   1.35199   1_565     S
N277  C280   1.51507       .     S
C280  N277   1.51507       .     S
N277  C282   1.51507       .     S
C282  N277   1.51507       .     S
N277  C289   1.48618   1_545     S
C289  N277   1.48618   1_565     S
N277  C291   1.48618   1_545     S
C291  N277   1.48618   1_565     S
C278  H279   0.94983       .     S
H279  C278   0.94983       .     S
C280  H281   0.97747       .     S
H281  C280   0.97747       .     S
C280  C282   0.79753       .     S
C282  C280   0.79753       .     S
C280  H283   0.85340       .     S
H283  C280   0.85340       .     S
C280  H284   0.98260       .     S
H284  C280   0.98260       .     S
C280  H285   0.98325       .     S
H285  C280   0.98325       .     S
C280  H286   1.17160       .     S
H286  C280   1.17160       .     S
H281  C282   0.85340       .     S
C282  H281   0.85340       .     S
H281  H283   0.28483       .     S
H283  H281   0.28483       .     S
C282  H283   0.97747       .     S
H283  C282   0.97747       .     S
C282  H285   1.17160       .     S
H285  C282   1.17160       .     S
C282  H286   0.98325       .     S
H286  C282   0.98325       .     S
C282  H287   0.98260       .     S
H287  C282   0.98260       .     S
H285  H286   0.50890       .     S
H286  H285   0.50890       .     S
H288  C289   0.74955       .     S
C289  H288   0.74955       .     S
H288  C291   0.97495       .     S
C291  H288   0.97495       .     S
H288  H292   0.37218       .     S
H292  H288   0.37218       .     S
C289  H290   0.98659   1_565     S
H290  C289   0.98659   1_545     S
C289  C291   1.04439       .     S
C291  C289   1.04439       .     S
C289  H292   0.97495       .     S
H292  C289   0.97495       .     S
C289  H295   0.97728       .     S
H295  C289   0.97728       .     S
C291  H292   0.74955       .     S
H292  C291   0.74955       .     S
C291  H293   0.98659   1_565     S
H293  C291   0.98659   1_545     S
C291  H294   0.97728       .     S
H294  C291   0.97728       .     S
O296  C297   1.23753   1_565     S
C297  O296   1.23753   1_545     S
O296  C300   1.23753   1_565     S
C300  O296   1.23753   1_545     S
C297  H298   0.94983       .     S
H298  C297   0.94983       .     S
C297  N299   1.35199   1_545     S
N299  C297   1.35199   1_565     S
C297  C300   1.18111       .     S
C300  C297   1.18111       .     S
N299  C300   1.35199   1_565     S
C300  N299   1.35199   1_545     S
N299  C302   1.48618   1_565     S
C302  N299   1.48618   1_545     S
N299  C307   1.48618   1_565     S
C307  N299   1.48618   1_545     S
N299  C310   1.51507       .     S
C310  N299   1.51507       .     S
N299  C312   1.51507       .     S
C312  N299   1.51507       .     S
C300  H301   0.94983       .     S
H301  C300   0.94983       .     S
C302  H303   0.74955       .     S
H303  C302   0.74955       .     S
C302  H304   0.97728       .     S
H304  C302   0.97728       .     S
C302  H305   0.98659       .     S
H305  C302   0.98659       .     S
C302  H306   0.97495       .     S
H306  C302   0.97495       .     S
C302  C307   1.04439       .     S
C307  C302   1.04439       .     S
H303  H306   0.37218       .     S
H306  H303   0.37218       .     S
H303  C307   0.97495       .     S
C307  H303   0.97495       .     S
H306  C307   0.74955       .     S
C307  H306   0.74955       .     S
C307  H308   0.98659       .     S
H308  C307   0.98659       .     S
C307  H309   0.97728       .     S
H309  C307   0.97728       .     S
C310  H311   0.97747       .     S
H311  C310   0.97747       .     S
C310  C312   0.79753       .     S
C312  C310   0.79753       .     S
C310  H313   0.85340       .     S
H313  C310   0.85340       .     S
C310  H314   1.17160       .     S
H314  C310   1.17160       .     S
C310  H315   0.98325       .     S
H315  C310   0.98325       .     S
C310  H316   0.98260       .     S
H316  C310   0.98260       .     S
H311  C312   0.85340       .     S
C312  H311   0.85340       .     S
H311  H313   0.28483       .     S
H313  H311   0.28483       .     S
C312  H313   0.97747       .     S
H313  C312   0.97747       .     S
C312  H314   0.98325       .     S
H314  C312   0.98325       .     S
C312  H315   1.17160       .     S
H315  C312   1.17160       .     S
C312  H317   0.98260       .     S
H317  C312   0.98260       .     S
H314  H315   0.50890       .     S
H315  H314   0.50890       .     S
O318  C319   1.23753   1_565     S
C319  O318   1.23753   1_545     S
O318  C322   1.23753   1_565     S
C322  O318   1.23753   1_545     S
C319  H320   0.94983       .     S
H320  C319   0.94983       .     S
C319  N321   1.35199   1_545     S
N321  C319   1.35199   1_565     S
C319  C322   1.18111       .     S
C322  C319   1.18111       .     S
C319  C325   1.76690   1_545     S
C325  C319   1.76690   1_565     S
N321  C322   1.35199   1_565     S
C322  N321   1.35199   1_545     S
N321  C325   1.44538       .     S
C325  N321   1.44538       .     S
N321  C329   1.51507       .     S
C329  N321   1.51507       .     S
N321  C331   1.51507       .     S
C331  N321   1.51507       .     S
N321  C336   1.48618   1_565     S
C336  N321   1.48618   1_545     S
N321  C339   1.46037   1_565     S
C339  N321   1.46037   1_545     S
N321  C344   1.48618   1_565     S
C344  N321   1.48618   1_545     S
C322  H323   0.94983       .     S
H323  C322   0.94983       .     S
H324  C325   0.91687       .     S
C325  H324   0.91687       .     S
H324  C329   0.98260       .     S
C329  H324   0.98260       .     S
C325  H326   0.98068       .     S
H326  C325   0.98068       .     S
C325  H327   0.97466   1_565     S
H327  C325   0.97466   1_545     S
C325  H328   0.98615       .     S
H328  C325   0.98615       .     S
C325  C329   1.20750       .     S
C329  C325   1.20750       .     S
H326  C329   1.14844       .     S
C329  H326   1.14844       .     S
C329  H330   0.97747       .     S
H330  C329   0.97747       .     S
C329  C331   0.79753       .     S
C331  C329   0.79753       .     S
C329  H332   0.85340       .     S
H332  C329   0.85340       .     S
C329  H333   1.17160       .     S
H333  C329   1.17160       .     S
C329  H334   0.98325       .     S
H334  C329   0.98325       .     S
H330  C331   0.85340       .     S
C331  H330   0.85340       .     S
H330  H332   0.28483       .     S
H332  H330   0.28483       .     S
C331  H332   0.97747       .     S
H332  C331   0.97747       .     S
C331  H333   0.98325       .     S
H333  C331   0.98325       .     S
C331  H334   1.17160       .     S
H334  C331   1.17160       .     S
C331  H335   0.98260       .     S
H335  C331   0.98260       .     S
H333  H334   0.50890       .     S
H334  H333   0.50890       .     S
C336  H337   0.97728       .     S
H337  C336   0.97728       .     S
C336  H338   0.74955       .     S
H338  C336   0.74955       .     S
C336  C339   0.69530       .     S
C339  C336   0.69530       .     S
C336  H342   0.54366       .     S
H342  C336   0.54366       .     S
C336  H343   0.97495       .     S
H343  C336   0.97495       .     S
C336  C344   1.04439       .     S
C344  C336   1.04439       .     S
C336  H347   0.98659       .     S
H347  C336   0.98659       .     S
H337  C339   0.78681       .     S
C339  H337   0.78681       .     S
H338  H342   0.53246       .     S
H342  H338   0.53246       .     S
H338  H343   0.37218       .     S
H343  H338   0.37218       .     S
H338  C344   0.97495       .     S
C344  H338   0.97495       .     S
C339  H340   0.97807   1_545     S
H340  C339   0.97807   1_565     S
C339  H341   0.97137       .     S
H341  C339   0.97137       .     S
C339  H342   0.99170       .     S
H342  C339   0.99170       .     S
C339  C344   1.65658       .     S
C344  C339   1.65658       .     S
C339  H347   1.15848       .     S
H347  C339   1.15848       .     S
H342  C344   1.32033       .     S
C344  H342   1.32033       .     S
H343  C344   0.74955       .     S
C344  H343   0.74955       .     S
C344  H345   0.97728       .     S
H345  C344   0.97728       .     S
C344  H346   0.98659       .     S
H346  C344   0.98659       .     S
O348  C349   1.22817       .     S
C349  O348   1.22817       .     S
O348  C350   1.22817       .     S
C350  O348   1.22817       .     S
C349  C350   0.77475       .     S
C350  C349   0.77475       .     S
C349  H351   0.94791       .     S
H351  C349   0.94791       .     S
C349  N353   1.36693       .     S
N353  C349   1.36693       .     S
C349  N362   1.36693       .     S
N362  C349   1.36693       .     S
C349  H388   0.94791       .     S
H388  C349   0.94791       .     S
C350  H352   0.94791       .     S
H352  C350   0.94791       .     S
C350  N353   1.36693       .     S
N353  C350   1.36693       .     S
C350  N362   1.36693       .     S
N362  C350   1.36693       .     S
C350  H387   0.94791       .     S
H387  C350   0.94791       .     S
H351  H388   0.43295       .     S
H388  H351   0.43295       .     S
H352  H387   0.43295       .     S
H387  H352   0.43295       .     S
N353  C354   1.61238       .     S
C354  N353   1.61238       .     S
N353  C358   1.63221       .     S
C358  N353   1.63221       .     S
N353  N362   0.37978       .     S
N362  N353   0.37978       .     S
N353  C363   1.42125       .     S
C363  N353   1.42125       .     S
N353  C367   1.48411       .     S
C367  N353   1.48411       .     S
N353  C371   1.63221       .     S
C371  N353   1.63221       .     S
N353  C374   1.61238       .     S
C374  N353   1.61238       .     S
N353  C379   1.48411       .     S
C379  N353   1.48411       .     S
N353  C382   1.42125       .     S
C382  N353   1.42125       .     S
C354  H355   0.98791       .     S
H355  C354   0.98791       .     S
C354  H356   0.97511       .     S
H356  C354   0.97511       .     S
C354  H357   0.98296       .     S
H357  C354   0.98296       .     S
C354  C358   0.92412       .     S
C358  C354   0.92412       .     S
C354  H360   0.90112       .     S
H360  C354   0.90112       .     S
C354  N362   1.42125       .     S
N362  C354   1.42125       .     S
C354  C379   1.64602       .     S
C379  C354   1.64602       .     S
C354  C382   1.52670       .     S
C382  C354   1.52670       .     S
C354  H385   1.20310       .     S
H385  C354   1.20310       .     S
H355  C358   0.56688       .     S
C358  H355   0.56688       .     S
H357  C382   1.20310       .     S
C382  H357   1.20310       .     S
H357  H385   0.31522       .     S
H385  H357   0.31522       .     S
C358  H359   0.97699       .     S
H359  C358   0.97699       .     S
C358  H360   0.98134       .     S
H360  C358   0.98134       .     S
C358  H361   0.98248       .     S
H361  C358   0.98248       .     S
C358  N362   1.48411       .     S
N362  C358   1.48411       .     S
C358  C379   1.21529       .     S
C379  C358   1.21529       .     S
C358  H380   1.14046       .     S
H380  C358   1.14046       .     S
C358  C382   1.64602       .     S
C382  C358   1.64602       .     S
H359  C379   1.14046       .     S
C379  H359   1.14046       .     S
H359  H380   0.28483       .     S
H380  H359   0.28483       .     S
N362  C363   1.61238       .     S
C363  N362   1.61238       .     S
N362  C367   1.63221       .     S
C367  N362   1.63221       .     S
N362  C371   1.48411       .     S
C371  N362   1.48411       .     S
N362  C374   1.42125       .     S
C374  N362   1.42125       .     S
N362  C379   1.63221       .     S
C379  N362   1.63221       .     S
N362  C382   1.61238       .     S
C382  N362   1.61238       .     S
C363  H364   0.98791       .     S
H364  C363   0.98791       .     S
C363  H365   0.97511       .     S
H365  C363   0.97511       .     S
C363  H366   0.98296       .     S
H366  C363   0.98296       .     S
C363  C367   0.92412       .     S
C367  C363   0.92412       .     S
C363  H369   0.90113       .     S
H369  C363   0.90113       .     S
C363  C371   1.64602       .     S
C371  C363   1.64602       .     S
C363  C374   1.52670       .     S
C374  C363   1.52670       .     S
C363  H377   1.20310       .     S
H377  C363   1.20310       .     S
H364  C367   0.56688       .     S
C367  H364   0.56688       .     S
H366  C374   1.20310       .     S
C374  H366   1.20310       .     S
H366  H377   0.31522       .     S
H377  H366   0.31522       .     S
C367  H368   0.97699       .     S
H368  C367   0.97699       .     S
C367  H369   0.98134       .     S
H369  C367   0.98134       .     S
C367  H370   0.98248       .     S
H370  C367   0.98248       .     S
C367  C371   1.21529       .     S
C371  C367   1.21529       .     S
C367  H372   1.14046       .     S
H372  C367   1.14046       .     S
C367  C374   1.64602       .     S
C374  C367   1.64602       .     S
H368  C371   1.14046       .     S
C371  H368   1.14046       .     S
H368  H372   0.28483       .     S
H372  H368   0.28483       .     S
C371  H372   0.97699       .     S
H372  C371   0.97699       .     S
C371  H373   0.98134       .     S
H373  C371   0.98134       .     S
C371  C374   0.92412       .     S
C374  C371   0.92412       .     S
C371  H375   0.56688       .     S
H375  C371   0.56688       .     S
C371  H378   0.98248       .     S
H378  C371   0.98248       .     S
H373  C374   0.90113       .     S
C374  H373   0.90113       .     S
C374  H375   0.98791       .     S
H375  C374   0.98791       .     S
C374  H376   0.97511       .     S
H376  C374   0.97511       .     S
C374  H377   0.98296       .     S
H377  C374   0.98296       .     S
C379  H380   0.97699       .     S
H380  C379   0.97699       .     S
C379  H381   0.98134       .     S
H381  C379   0.98134       .     S
C379  C382   0.92412       .     S
C382  C379   0.92412       .     S
C379  H383   0.56688       .     S
H383  C379   0.56688       .     S
C379  H386   0.98248       .     S
H386  C379   0.98248       .     S
H381  C382   0.90113       .     S
C382  H381   0.90113       .     S
C382  H383   0.98791       .     S
H383  C382   0.98791       .     S
C382  H384   0.97511       .     S
H384  C382   0.97511       .     S
C382  H385   0.98296       .     S
H385  C382   0.98296       .     S
O210  H1     2.09719       .     S
H1    O210   2.09719       .     S
O208  H7     2.09719       .     S
H7    O208   2.09719       .     S
H1    N0     0.87968       .     S
N0    H1     0.87968       .     S
H2    N0     0.87958       .     S
N0    H2     0.87958       .     S
C5    N0     1.30274       .     S
N0    C5     1.30274       .     S
H4    N3     0.88093       .     S
N3    H4     0.88093       .     S
C5    N3     1.35812       .     S
N3    C5     1.35812       .     S
H9    N3     0.88093       .     S
N3    H9     0.88093       .     S
N6    C5     1.30274       .     S
C5    N6     1.30274       .     S
H7    N6     0.87968       .     S
N6    H7     0.87968       .     S
H8    N6     0.87958       .     S
N6    H8     0.87958       .     S
Na11  O10    2.12709   1_545     S
O10   Na11   2.12709   1_565     S
O13   Na11   2.12709   1_565     S
Na11  O13    2.12709   1_545     S
O109  Na11   2.12709       .     S
Na11  O109   2.12709       .     S
O206  Na11   2.12709       .     S
Na11  O206   2.12709       .     S
O13   S12    1.46226       .     S
S12   O13    1.46226       .     S
O14   S12    1.43799       .     S
S12   O14    1.43799       .     S
O15   S12    1.47497       .     S
S12   O15    1.47497       .     S
C22   S12    1.75284       .     S
S12   C22    1.75284       .     S
C17   C16    1.52484       .     S
C16   C17    1.52484       .     S
C31   C16    1.38998       .     S
C16   C31    1.38998       .     S
C46   C16    1.39378       .     S
C16   C46    1.39378       .     S
C18   C17    1.31907       .     S
C17   C18    1.31907       .     S
C25   C17    1.37493       .     S
C17   C25    1.37493       .     S
H19   C18    0.94987       .     S
C18   H19    0.94987       .     S
C20   C18    1.38856       .     S
C18   C20    1.38856       .     S
H21   C20    0.94972       .     S
C20   H21    0.94972       .     S
C22   C20    1.37436       .     S
C20   C22    1.37436       .     S
C23   C22    1.38335       .     S
C22   C23    1.38335       .     S
H24   C23    0.95127       .     S
C23   H24    0.95127       .     S
C25   C23    1.41491       .     S
C23   C25    1.41491       .     S
H26   C25    0.94911       .     S
C25   H26    0.94911       .     S
O28   S27    1.46226       .     S
S27   O28    1.46226       .     S
O29   S27    1.43799       .     S
S27   O29    1.43799       .     S
O30   S27    1.47497       .     S
S27   O30    1.47497       .     S
C37   S27    1.75284       .     S
S27   C37    1.75284       .     S
Na102 O28    2.12709   1_554     S
O28   Na102  2.12709   1_556     S
C32   C31    1.52484       .     S
C31   C32    1.52484       .     S
C61   C31    1.39378       .     S
C31   C61    1.39378       .     S
C33   C32    1.31907       .     S
C32   C33    1.31907       .     S
C40   C32    1.37493       .     S
C32   C40    1.37493       .     S
H34   C33    0.94987       .     S
C33   H34    0.94987       .     S
C35   C33    1.38856       .     S
C33   C35    1.38856       .     S
H36   C35    0.94972       .     S
C35   H36    0.94972       .     S
C37   C35    1.37435       .     S
C35   C37    1.37435       .     S
C38   C37    1.38335       .     S
C37   C38    1.38335       .     S
H39   C38    0.95127       .     S
C38   H39    0.95127       .     S
C40   C38    1.41491       .     S
C38   C40    1.41491       .     S
H41   C40    0.94911       .     S
C40   H41    0.94911       .     S
O43   S42    1.46226       .     S
S42   O43    1.46226       .     S
O44   S42    1.43799       .     S
S42   O44    1.43799       .     S
O45   S42    1.47497       .     S
S42   O45    1.47497       .     S
C52   S42    1.75284       .     S
S42   C52    1.75284       .     S
Na106 O43    2.12709   1_545     S
O43   Na106  2.12709   1_565     S
C47   C46    1.52484       .     S
C46   C47    1.52484       .     S
C76   C46    1.38998       .     S
C46   C76    1.38998       .     S
C48   C47    1.31907       .     S
C47   C48    1.31907       .     S
C55   C47    1.37493       .     S
C47   C55    1.37493       .     S
H49   C48    0.94987       .     S
C48   H49    0.94987       .     S
C50   C48    1.38856       .     S
C48   C50    1.38856       .     S
H51   C50    0.94972       .     S
C50   H51    0.94972       .     S
C52   C50    1.37436       .     S
C50   C52    1.37436       .     S
C53   C52    1.38335       .     S
C52   C53    1.38335       .     S
H54   C53    0.95127       .     S
C53   H54    0.95127       .     S
C55   C53    1.41491       .     S
C53   C55    1.41491       .     S
H56   C55    0.94911       .     S
C55   H56    0.94911       .     S
O58   S57    1.46226       .     S
S57   O58    1.46226       .     S
O59   S57    1.43799       .     S
S57   O59    1.43799       .     S
O60   S57    1.47497       .     S
S57   O60    1.47497       .     S
C67   S57    1.75284       .     S
S57   C67    1.75284       .     S
Na104 O58    2.12709   1_554     S
O58   Na104  2.12709   1_556     S
C62   C61    1.52484       .     S
C61   C62    1.52484       .     S
C91   C61    1.38998       .     S
C61   C91    1.38998       .     S
C63   C62    1.31907       .     S
C62   C63    1.31907       .     S
C70   C62    1.37493       .     S
C62   C70    1.37493       .     S
H64   C63    0.94987       .     S
C63   H64    0.94987       .     S
C65   C63    1.38856       .     S
C63   C65    1.38856       .     S
H66   C65    0.94972       .     S
C65   H66    0.94972       .     S
C67   C65    1.37436       .     S
C65   C67    1.37436       .     S
C68   C67    1.38335       .     S
C67   C68    1.38335       .     S
H69   C68    0.95127       .     S
C68   H69    0.95127       .     S
C70   C68    1.41491       .     S
C68   C70    1.41491       .     S
H71   C70    0.94911       .     S
C70   H71    0.94911       .     S
O73   S72    1.46226       .     S
S72   O73    1.46226       .     S
O74   S72    1.43799       .     S
S72   O74    1.43799       .     S
O75   S72    1.47497       .     S
S72   O75    1.47497       .     S
C82   S72    1.75284       .     S
S72   C82    1.75284       .     S
Na105 O73    2.12709   1_455     S
O73   Na105  2.12709   1_655     S
C77   C76    1.52484       .     S
C76   C77    1.52484       .     S
C91   C76    1.39378       .     S
C76   C91    1.39378       .     S
C78   C77    1.31907       .     S
C77   C78    1.31907       .     S
C85   C77    1.37493       .     S
C77   C85    1.37493       .     S
H79   C78    0.94987       .     S
C78   H79    0.94987       .     S
C80   C78    1.38856       .     S
C78   C80    1.38856       .     S
H81   C80    0.94972       .     S
C80   H81    0.94972       .     S
C82   C80    1.37436       .     S
C80   C82    1.37436       .     S
C83   C82    1.38335       .     S
C82   C83    1.38335       .     S
H84   C83    0.95127       .     S
C83   H84    0.95127       .     S
C85   C83    1.41491       .     S
C83   C85    1.41491       .     S
H86   C85    0.94911       .     S
C85   H86    0.94911       .     S
O88   S87    1.46226       .     S
S87   O88    1.46226       .     S
O89   S87    1.43799       .     S
S87   O89    1.43799       .     S
O90   S87    1.47497       .     S
S87   O90    1.47497       .     S
C97   S87    1.75284       .     S
S87   C97    1.75284       .     S
Na103 O88    2.12709   1_455     S
O88   Na103  2.12709   1_655     S
C92   C91    1.52484       .     S
C91   C92    1.52484       .     S
C93   C92    1.31907       .     S
C92   C93    1.31907       .     S
C100  C92    1.37493       .     S
C92   C100   1.37493       .     S
H94   C93    0.94987       .     S
C93   H94    0.94987       .     S
C95   C93    1.38856       .     S
C93   C95    1.38856       .     S
H96   C95    0.94972       .     S
C95   H96    0.94972       .     S
C97   C95    1.37436       .     S
C95   C97    1.37436       .     S
C98   C97    1.38335       .     S
C97   C98    1.38335       .     S
H99   C98    0.95127       .     S
C98   H99    0.95127       .     S
C100  C98    1.41491       .     S
C98   C100   1.41491       .     S
H101  C100   0.94911       .     S
C100  H101   0.94911       .     S
O204  Na102  2.12709       .     S
Na102 O204   2.12709       .     S
O205  Na102  2.12709       .     S
Na102 O205   2.12709       .     S
O207  Na102  2.12709   1_556     S
Na102 O207   2.12709   1_554     S
O184  Na103  2.12709       .     S
Na103 O184   2.12709       .     S
O124  Na107  2.12709   1_556     S
Na107 O124   2.12709   1_554     S
O201  Na107  2.12709       .     S
Na107 O201   2.12709       .     S
O202  Na107  2.12709       .     S
Na107 O202   2.12709       .     S
O203  Na107  2.12709   1_556     S
Na107 O203   2.12709   1_554     S
O109  S108   1.46226       .     S
S108  O109   1.46226       .     S
O110  S108   1.43799       .     S
S108  O110   1.43799       .     S
O111  S108   1.47497       .     S
S108  O111   1.47497       .     S
C118  S108   1.75284       .     S
S108  C118   1.75284       .     S
C113  C112   1.52485       .     S
C112  C113   1.52485       .     S
C127  C112   1.38998       .     S
C112  C127   1.38998       .     S
C142  C112   1.39378       .     S
C112  C142   1.39378       .     S
C114  C113   1.31907       .     S
C113  C114   1.31907       .     S
C121  C113   1.37493       .     S
C113  C121   1.37493       .     S
H115  C114   0.94987       .     S
C114  H115   0.94987       .     S
C116  C114   1.38856       .     S
C114  C116   1.38856       .     S
H117  C116   0.94972       .     S
C116  H117   0.94972       .     S
C118  C116   1.37436       .     S
C116  C118   1.37436       .     S
C119  C118   1.38335       .     S
C118  C119   1.38335       .     S
H120  C119   0.95127       .     S
C119  H120   0.95127       .     S
C121  C119   1.41491       .     S
C119  C121   1.41491       .     S
H122  C121   0.94911       .     S
C121  H122   0.94911       .     S
O124  S123   1.46226       .     S
S123  O124   1.46226       .     S
O125  S123   1.43799       .     S
S123  O125   1.43799       .     S
O126  S123   1.47497       .     S
S123  O126   1.47497       .     S
C133  S123   1.75284       .     S
S123  C133   1.75284       .     S
C128  C127   1.52484       .     S
C127  C128   1.52484       .     S
C157  C127   1.39378       .     S
C127  C157   1.39378       .     S
C129  C128   1.31907       .     S
C128  C129   1.31907       .     S
C136  C128   1.37493       .     S
C128  C136   1.37493       .     S
H130  C129   0.94987       .     S
C129  H130   0.94987       .     S
C131  C129   1.38856       .     S
C129  C131   1.38856       .     S
H132  C131   0.94972       .     S
C131  H132   0.94972       .     S
C133  C131   1.37436       .     S
C131  C133   1.37436       .     S
C134  C133   1.38335       .     S
C133  C134   1.38335       .     S
H135  C134   0.95127       .     S
C134  H135   0.95127       .     S
C136  C134   1.41491       .     S
C134  C136   1.41491       .     S
H137  C136   0.94911       .     S
C136  H137   0.94911       .     S
O139  S138   1.46226       .     S
S138  O139   1.46226       .     S
O140  S138   1.43799       .     S
S138  O140   1.43799       .     S
O141  S138   1.47497       .     S
S138  O141   1.47497       .     S
C148  S138   1.75284       .     S
S138  C148   1.75284       .     S
Na199 O139   2.12709       .     S
O139  Na199  2.12709       .     S
C143  C142   1.52484       .     S
C142  C143   1.52484       .     S
C172  C142   1.38998       .     S
C142  C172   1.38998       .     S
C144  C143   1.31907       .     S
C143  C144   1.31907       .     S
C151  C143   1.37493       .     S
C143  C151   1.37493       .     S
H145  C144   0.94987       .     S
C144  H145   0.94987       .     S
C146  C144   1.38856       .     S
C144  C146   1.38856       .     S
H147  C146   0.94972       .     S
C146  H147   0.94972       .     S
C148  C146   1.37436       .     S
C146  C148   1.37436       .     S
C149  C148   1.38335       .     S
C148  C149   1.38335       .     S
H150  C149   0.95127       .     S
C149  H150   0.95127       .     S
C151  C149   1.41491       .     S
C149  C151   1.41491       .     S
H152  C151   0.94911       .     S
C151  H152   0.94911       .     S
O154  S153   1.46226       .     S
S153  O154   1.46226       .     S
O155  S153   1.43799       .     S
S153  O155   1.43799       .     S
O156  S153   1.47497       .     S
S153  O156   1.47497       .     S
C163  S153   1.75284       .     S
S153  C163   1.75284       .     S
Na198 O154   2.12709   1_554     S
O154  Na198  2.12709   1_556     S
C158  C157   1.52484       .     S
C157  C158   1.52484       .     S
C187  C157   1.38998       .     S
C157  C187   1.38998       .     S
C159  C158   1.31907       .     S
C158  C159   1.31907       .     S
C166  C158   1.37493       .     S
C158  C166   1.37493       .     S
H160  C159   0.94987       .     S
C159  H160   0.94987       .     S
C161  C159   1.38856       .     S
C159  C161   1.38856       .     S
H162  C161   0.94972       .     S
C161  H162   0.94972       .     S
C163  C161   1.37436       .     S
C161  C163   1.37436       .     S
C164  C163   1.38335       .     S
C163  C164   1.38335       .     S
H165  C164   0.95127       .     S
C164  H165   0.95127       .     S
C166  C164   1.41491       .     S
C164  C166   1.41491       .     S
H167  C166   0.94911       .     S
C166  H167   0.94911       .     S
O169  S168   1.46226       .     S
S168  O169   1.46226       .     S
O170  S168   1.43799       .     S
S168  O170   1.43799       .     S
O171  S168   1.47497       .     S
S168  O171   1.47497       .     S
C178  S168   1.75284       .     S
S168  C178   1.75284       .     S
Na200 O169   2.12709       .     S
O169  Na200  2.12709       .     S
C173  C172   1.52484       .     S
C172  C173   1.52484       .     S
C187  C172   1.39378       .     S
C172  C187   1.39378       .     S
C174  C173   1.31907       .     S
C173  C174   1.31907       .     S
C181  C173   1.37493       .     S
C173  C181   1.37493       .     S
H175  C174   0.94987       .     S
C174  H175   0.94987       .     S
C176  C174   1.38856       .     S
C174  C176   1.38856       .     S
H177  C176   0.94972       .     S
C176  H177   0.94972       .     S
C178  C176   1.37436       .     S
C176  C178   1.37436       .     S
C179  C178   1.38335       .     S
C178  C179   1.38335       .     S
H180  C179   0.95127       .     S
C179  H180   0.95127       .     S
C181  C179   1.41491       .     S
C179  C181   1.41491       .     S
H182  C181   0.94911       .     S
C181  H182   0.94911       .     S
O184  S183   1.46226       .     S
S183  O184   1.46226       .     S
O185  S183   1.43799       .     S
S183  O185   1.43799       .     S
O186  S183   1.47497       .     S
S183  O186   1.47497       .     S
C193  S183   1.75284       .     S
S183  C193   1.75284       .     S
C188  C187   1.52484       .     S
C187  C188   1.52484       .     S
C189  C188   1.31907       .     S
C188  C189   1.31907       .     S
C196  C188   1.37493       .     S
C188  C196   1.37493       .     S
H190  C189   0.94987       .     S
C189  H190   0.94987       .     S
C191  C189   1.38856       .     S
C189  C191   1.38856       .     S
H192  C191   0.94972       .     S
C191  H192   0.94972       .     S
C193  C191   1.37436       .     S
C191  C193   1.37436       .     S
C194  C193   1.38335       .     S
C193  C194   1.38335       .     S
H195  C194   0.95127       .     S
C194  H195   0.95127       .     S
C196  C194   1.41491       .     S
C194  C196   1.41491       .     S
H197  C196   0.94911       .     S
C196  H197   0.94911       .     S
N209  O208   1.24554       .     S
O208  N209   1.24554       .     S
O210  N209   1.24554       .     S
N209  O210   1.24554       .     S
O211  N209   1.24554       .     S
N209  O211   1.24554       .     S
C213  H212   0.74955       .     S
H212  C213   0.74955       .     S
C215  H212   0.97495       .     S
H212  C215   0.97495       .     S
H216  H212   0.37218       .     S
H212  H216   0.37218       .     S
H214  C213   0.98659   1_545     S
C213  H214   0.98659   1_565     S
C215  C213   1.04439       .     S
C213  C215   1.04439       .     S
H216  C213   0.97495       .     S
C213  H216   0.97495       .     S
N221  C213   1.48618   1_545     S
C213  N221   1.48618   1_565     S
H390  C213   0.97728       .     S
C213  H390   0.97728       .     S
H216  C215   0.74955       .     S
C215  H216   0.74955       .     S
H217  C215   0.97728       .     S
C215  H217   0.97728       .     S
N221  C215   1.48618   1_545     S
C215  N221   1.48618   1_565     S
H389  C215   0.98659   1_545     S
C215  H389   0.98659   1_565     S
C219  O218   1.23753   1_565     S
O218  C219   1.23753   1_545     S
C222  O218   1.23753   1_565     S
O218  C222   1.23753   1_545     S
Al232 O218   1.96293       .     S
O218  Al232  1.96293       .     S
H220  C219   0.94983       .     S
C219  H220   0.94983       .     S
N221  C219   1.35199   1_545     S
C219  N221   1.35199   1_565     S
C222  C219   1.18111       .     S
C219  C222   1.18111       .     S
C222  N221   1.35199   1_565     S
N221  C222   1.35199   1_545     S
C224  N221   1.51507       .     S
N221  C224   1.51507       .     S
C226  N221   1.51507       .     S
N221  C226   1.51507       .     S
H223  C222   0.94983       .     S
C222  H223   0.94983       .     S
H225  C224   0.97747       .     S
C224  H225   0.97747       .     S
C226  C224   0.79753       .     S
C224  C226   0.79753       .     S
H227  C224   0.85340       .     S
C224  H227   0.85340       .     S
H228  C224   0.98259       .     S
C224  H228   0.98259       .     S
H229  C224   0.98325       .     S
C224  H229   0.98325       .     S
H230  C224   1.17160       .     S
C224  H230   1.17160       .     S
C226  H225   0.85340       .     S
H225  C226   0.85340       .     S
H227  H225   0.28483       .     S
H225  H227   0.28483       .     S
H227  C226   0.97747       .     S
C226  H227   0.97747       .     S
H229  C226   1.17160       .     S
C226  H229   1.17160       .     S
H230  C226   0.98325       .     S
C226  H230   0.98325       .     S
H231  C226   0.98260       .     S
C226  H231   0.98260       .     S
H230  H229   0.50890       .     S
H229  H230   0.50890       .     S
O233  Al232  1.58172       .     S
Al232 O233   1.58172       .     S
O274  Al232  1.96293       .     S
Al232 O274   1.96293       .     S
O296  Al232  1.96293   1_565     S
Al232 O296   1.96293   1_545     S
O318  Al232  1.96293   1_565     S
Al232 O318   1.96293   1_545     S
O348  Al232  1.58172   1_565     S
Al232 O348   1.58172   1_545     S
C234  O233   1.22817       .     S
O233  C234   1.22817       .     S
C235  O233   1.22817       .     S
O233  C235   1.22817       .     S
C235  C234   0.77475       .     S
C234  C235   0.77475       .     S
H237  C234   0.94791       .     S
C234  H237   0.94791       .     S
N239  C234   1.36693       .     S
C234  N239   1.36693       .     S
N248  C234   1.36693       .     S
C234  N248   1.36693       .     S
H273  C234   0.94791       .     S
C234  H273   0.94791       .     S
H236  C235   0.94791       .     S
C235  H236   0.94791       .     S
H238  C235   0.94791       .     S
C235  H238   0.94791       .     S
N239  C235   1.36693       .     S
C235  N239   1.36693       .     S
N248  C235   1.36693       .     S
C235  N248   1.36693       .     S
H238  H236   0.43295       .     S
H236  H238   0.43295       .     S
H273  H237   0.43295       .     S
H237  H273   0.43295       .     S
C240  N239   1.63221       .     S
N239  C240   1.63221       .     S
C243  N239   1.61238       .     S
N239  C243   1.61238       .     S
N248  N239   0.37978       .     S
N239  N248   0.37978       .     S
C249  N239   1.61238       .     S
N239  C249   1.61238       .     S
C253  N239   1.63221       .     S
N239  C253   1.63221       .     S
C256  N239   1.48411       .     S
N239  C256   1.48411       .     S
C259  N239   1.42125       .     S
N239  C259   1.42125       .     S
C265  N239   1.42125       .     S
N239  C265   1.42125       .     S
C269  N239   1.48411       .     S
N239  C269   1.48411       .     S
H241  C240   0.97699       .     S
C240  H241   0.97699       .     S
H242  C240   0.98134       .     S
C240  H242   0.98134       .     S
C243  C240   0.92412       .     S
C240  C243   0.92412       .     S
H244  C240   0.56688       .     S
C240  H244   0.56688       .     S
H247  C240   0.98248       .     S
C240  H247   0.98248       .     S
N248  C240   1.48411       .     S
C240  N248   1.48411       .     S
C265  C240   1.64602       .     S
C240  C265   1.64602       .     S
C269  C240   1.21529       .     S
C240  C269   1.21529       .     S
H270  C240   1.14046       .     S
C240  H270   1.14046       .     S
C269  H241   1.14046       .     S
H241  C269   1.14046       .     S
H270  H241   0.28483       .     S
H241  H270   0.28483       .     S
C243  H242   0.90113       .     S
H242  C243   0.90113       .     S
H244  C243   0.98791       .     S
C243  H244   0.98791       .     S
H245  C243   0.97511       .     S
C243  H245   0.97511       .     S
H246  C243   0.98296       .     S
C243  H246   0.98296       .     S
N248  C243   1.42125       .     S
C243  N248   1.42125       .     S
C265  C243   1.52670       .     S
C243  C265   1.52670       .     S
H268  C243   1.20310       .     S
C243  H268   1.20310       .     S
C269  C243   1.64602       .     S
C243  C269   1.64602       .     S
C265  H246   1.20310       .     S
H246  C265   1.20310       .     S
H268  H246   0.31522       .     S
H246  H268   0.31522       .     S
C249  N248   1.42125       .     S
N248  C249   1.42125       .     S
C253  N248   1.48411       .     S
N248  C253   1.48411       .     S
C256  N248   1.63221       .     S
N248  C256   1.63221       .     S
C259  N248   1.61238       .     S
N248  C259   1.61238       .     S
C265  N248   1.61238       .     S
N248  C265   1.61238       .     S
C269  N248   1.63221       .     S
N248  C269   1.63221       .     S
H250  C249   0.98791       .     S
C249  H250   0.98791       .     S
H251  C249   0.97511       .     S
C249  H251   0.97511       .     S
H252  C249   0.98296       .     S
C249  H252   0.98296       .     S
C253  C249   0.92412       .     S
C249  C253   0.92412       .     S
H255  C249   0.90113       .     S
C249  H255   0.90113       .     S
C256  C249   1.64602       .     S
C249  C256   1.64602       .     S
C259  C249   1.52670       .     S
C249  C259   1.52670       .     S
H262  C249   1.20310       .     S
C249  H262   1.20310       .     S
C253  H250   0.56688       .     S
H250  C253   0.56688       .     S
C259  H252   1.20310       .     S
H252  C259   1.20310       .     S
H262  H252   0.31522       .     S
H252  H262   0.31522       .     S
H254  C253   0.97699       .     S
C253  H254   0.97699       .     S
H255  C253   0.98134       .     S
C253  H255   0.98134       .     S
C256  C253   1.21529       .     S
C253  C256   1.21529       .     S
H257  C253   1.14046       .     S
C253  H257   1.14046       .     S
C259  C253   1.64602       .     S
C253  C259   1.64602       .     S
H264  C253   0.98248       .     S
C253  H264   0.98248       .     S
C256  H254   1.14046       .     S
H254  C256   1.14046       .     S
H257  H254   0.28483       .     S
H254  H257   0.28483       .     S
H257  C256   0.97699       .     S
C256  H257   0.97699       .     S
H258  C256   0.98134       .     S
C256  H258   0.98134       .     S
C259  C256   0.92412       .     S
C256  C259   0.92412       .     S
H260  C256   0.56688       .     S
C256  H260   0.56688       .     S
H263  C256   0.98248       .     S
C256  H263   0.98248       .     S
C259  H258   0.90112       .     S
H258  C259   0.90112       .     S
H260  C259   0.98791       .     S
C259  H260   0.98791       .     S
H261  C259   0.97511       .     S
C259  H261   0.97511       .     S
H262  C259   0.98296       .     S
C259  H262   0.98296       .     S
H266  C265   0.98791       .     S
C265  H266   0.98791       .     S
H267  C265   0.97511       .     S
C265  H267   0.97511       .     S
H268  C265   0.98296       .     S
C265  H268   0.98296       .     S
C269  C265   0.92412       .     S
C265  C269   0.92412       .     S
H271  C265   0.90112       .     S
C265  H271   0.90112       .     S
C269  H266   0.56688       .     S
H266  C269   0.56688       .     S
H270  C269   0.97699       .     S
C269  H270   0.97699       .     S
H271  C269   0.98134       .     S
C269  H271   0.98134       .     S
H272  C269   0.98248       .     S
C269  H272   0.98248       .     S
C275  O274   1.23753   1_565     S
O274  C275   1.23753   1_545     S
C278  O274   1.23753   1_565     S
O274  C278   1.23753   1_545     S
H276  C275   0.94983       .     S
C275  H276   0.94983       .     S
N277  C275   1.35199   1_545     S
C275  N277   1.35199   1_565     S
C278  C275   1.18111       .     S
C275  C278   1.18111       .     S
C278  N277   1.35199   1_565     S
N277  C278   1.35199   1_545     S
C280  N277   1.51507       .     S
N277  C280   1.51507       .     S
C282  N277   1.51507       .     S
N277  C282   1.51507       .     S
C289  N277   1.48618   1_565     S
N277  C289   1.48618   1_545     S
C291  N277   1.48618   1_565     S
N277  C291   1.48618   1_545     S
H279  C278   0.94983       .     S
C278  H279   0.94983       .     S
H281  C280   0.97747       .     S
C280  H281   0.97747       .     S
C282  C280   0.79753       .     S
C280  C282   0.79753       .     S
H283  C280   0.85340       .     S
C280  H283   0.85340       .     S
H284  C280   0.98260       .     S
C280  H284   0.98260       .     S
H285  C280   0.98325       .     S
C280  H285   0.98325       .     S
H286  C280   1.17160       .     S
C280  H286   1.17160       .     S
C282  H281   0.85340       .     S
H281  C282   0.85340       .     S
H283  H281   0.28483       .     S
H281  H283   0.28483       .     S
H283  C282   0.97747       .     S
C282  H283   0.97747       .     S
H285  C282   1.17160       .     S
C282  H285   1.17160       .     S
H286  C282   0.98325       .     S
C282  H286   0.98325       .     S
H287  C282   0.98260       .     S
C282  H287   0.98260       .     S
H286  H285   0.50890       .     S
H285  H286   0.50890       .     S
C289  H288   0.74955       .     S
H288  C289   0.74955       .     S
C291  H288   0.97495       .     S
H288  C291   0.97495       .     S
H292  H288   0.37218       .     S
H288  H292   0.37218       .     S
H290  C289   0.98659   1_545     S
C289  H290   0.98659   1_565     S
C291  C289   1.04439       .     S
C289  C291   1.04439       .     S
H292  C289   0.97495       .     S
C289  H292   0.97495       .     S
H295  C289   0.97728       .     S
C289  H295   0.97728       .     S
H292  C291   0.74955       .     S
C291  H292   0.74955       .     S
H293  C291   0.98659   1_545     S
C291  H293   0.98659   1_565     S
H294  C291   0.97728       .     S
C291  H294   0.97728       .     S
C297  O296   1.23753   1_545     S
O296  C297   1.23753   1_565     S
C300  O296   1.23753   1_545     S
O296  C300   1.23753   1_565     S
H298  C297   0.94983       .     S
C297  H298   0.94983       .     S
N299  C297   1.35199   1_565     S
C297  N299   1.35199   1_545     S
C300  C297   1.18111       .     S
C297  C300   1.18111       .     S
C300  N299   1.35199   1_545     S
N299  C300   1.35199   1_565     S
C302  N299   1.48618   1_545     S
N299  C302   1.48618   1_565     S
C307  N299   1.48618   1_545     S
N299  C307   1.48618   1_565     S
C310  N299   1.51507       .     S
N299  C310   1.51507       .     S
C312  N299   1.51507       .     S
N299  C312   1.51507       .     S
H301  C300   0.94983       .     S
C300  H301   0.94983       .     S
H303  C302   0.74955       .     S
C302  H303   0.74955       .     S
H304  C302   0.97728       .     S
C302  H304   0.97728       .     S
H305  C302   0.98659       .     S
C302  H305   0.98659       .     S
H306  C302   0.97495       .     S
C302  H306   0.97495       .     S
C307  C302   1.04439       .     S
C302  C307   1.04439       .     S
H306  H303   0.37218       .     S
H303  H306   0.37218       .     S
C307  H303   0.97495       .     S
H303  C307   0.97495       .     S
C307  H306   0.74955       .     S
H306  C307   0.74955       .     S
H308  C307   0.98659       .     S
C307  H308   0.98659       .     S
H309  C307   0.97728       .     S
C307  H309   0.97728       .     S
H311  C310   0.97747       .     S
C310  H311   0.97747       .     S
C312  C310   0.79753       .     S
C310  C312   0.79753       .     S
H313  C310   0.85340       .     S
C310  H313   0.85340       .     S
H314  C310   1.17160       .     S
C310  H314   1.17160       .     S
H315  C310   0.98325       .     S
C310  H315   0.98325       .     S
H316  C310   0.98260       .     S
C310  H316   0.98260       .     S
C312  H311   0.85340       .     S
H311  C312   0.85340       .     S
H313  H311   0.28483       .     S
H311  H313   0.28483       .     S
H313  C312   0.97747       .     S
C312  H313   0.97747       .     S
H314  C312   0.98325       .     S
C312  H314   0.98325       .     S
H315  C312   1.17160       .     S
C312  H315   1.17160       .     S
H317  C312   0.98260       .     S
C312  H317   0.98260       .     S
H315  H314   0.50890       .     S
H314  H315   0.50890       .     S
C319  O318   1.23753   1_545     S
O318  C319   1.23753   1_565     S
C322  O318   1.23753   1_545     S
O318  C322   1.23753   1_565     S
H320  C319   0.94983       .     S
C319  H320   0.94983       .     S
N321  C319   1.35199   1_565     S
C319  N321   1.35199   1_545     S
C322  C319   1.18111       .     S
C319  C322   1.18111       .     S
C325  C319   1.76690   1_565     S
C319  C325   1.76690   1_545     S
C322  N321   1.35199   1_545     S
N321  C322   1.35199   1_565     S
C325  N321   1.44538       .     S
N321  C325   1.44538       .     S
C329  N321   1.51507       .     S
N321  C329   1.51507       .     S
C331  N321   1.51507       .     S
N321  C331   1.51507       .     S
C336  N321   1.48618   1_545     S
N321  C336   1.48618   1_565     S
C339  N321   1.46037   1_545     S
N321  C339   1.46037   1_565     S
C344  N321   1.48618   1_545     S
N321  C344   1.48618   1_565     S
H323  C322   0.94983       .     S
C322  H323   0.94983       .     S
C325  H324   0.91687       .     S
H324  C325   0.91687       .     S
C329  H324   0.98260       .     S
H324  C329   0.98260       .     S
H326  C325   0.98068       .     S
C325  H326   0.98068       .     S
H327  C325   0.97466   1_545     S
C325  H327   0.97466   1_565     S
H328  C325   0.98615       .     S
C325  H328   0.98615       .     S
C329  C325   1.20750       .     S
C325  C329   1.20750       .     S
C329  H326   1.14844       .     S
H326  C329   1.14844       .     S
H330  C329   0.97747       .     S
C329  H330   0.97747       .     S
C331  C329   0.79753       .     S
C329  C331   0.79753       .     S
H332  C329   0.85340       .     S
C329  H332   0.85340       .     S
H333  C329   1.17160       .     S
C329  H333   1.17160       .     S
H334  C329   0.98325       .     S
C329  H334   0.98325       .     S
C331  H330   0.85340       .     S
H330  C331   0.85340       .     S
H332  H330   0.28483       .     S
H330  H332   0.28483       .     S
H332  C331   0.97747       .     S
C331  H332   0.97747       .     S
H333  C331   0.98325       .     S
C331  H333   0.98325       .     S
H334  C331   1.17160       .     S
C331  H334   1.17160       .     S
H335  C331   0.98260       .     S
C331  H335   0.98260       .     S
H334  H333   0.50890       .     S
H333  H334   0.50890       .     S
H337  C336   0.97728       .     S
C336  H337   0.97728       .     S
H338  C336   0.74955       .     S
C336  H338   0.74955       .     S
C339  C336   0.69530       .     S
C336  C339   0.69530       .     S
H342  C336   0.54366       .     S
C336  H342   0.54366       .     S
H343  C336   0.97495       .     S
C336  H343   0.97495       .     S
C344  C336   1.04439       .     S
C336  C344   1.04439       .     S
H347  C336   0.98659       .     S
C336  H347   0.98659       .     S
C339  H337   0.78681       .     S
H337  C339   0.78681       .     S
H342  H338   0.53246       .     S
H338  H342   0.53246       .     S
H343  H338   0.37218       .     S
H338  H343   0.37218       .     S
C344  H338   0.97495       .     S
H338  C344   0.97495       .     S
H340  C339   0.97807   1_565     S
C339  H340   0.97807   1_545     S
H341  C339   0.97137       .     S
C339  H341   0.97137       .     S
H342  C339   0.99170       .     S
C339  H342   0.99170       .     S
C344  C339   1.65658       .     S
C339  C344   1.65658       .     S
H347  C339   1.15848       .     S
C339  H347   1.15848       .     S
C344  H342   1.32033       .     S
H342  C344   1.32033       .     S
C344  H343   0.74955       .     S
H343  C344   0.74955       .     S
H345  C344   0.97728       .     S
C344  H345   0.97728       .     S
H346  C344   0.98659       .     S
C344  H346   0.98659       .     S
C349  O348   1.22817       .     S
O348  C349   1.22817       .     S
C350  O348   1.22817       .     S
O348  C350   1.22817       .     S
C350  C349   0.77475       .     S
C349  C350   0.77475       .     S
H351  C349   0.94791       .     S
C349  H351   0.94791       .     S
N353  C349   1.36693       .     S
C349  N353   1.36693       .     S
N362  C349   1.36693       .     S
C349  N362   1.36693       .     S
H388  C349   0.94791       .     S
C349  H388   0.94791       .     S
H352  C350   0.94791       .     S
C350  H352   0.94791       .     S
N353  C350   1.36693       .     S
C350  N353   1.36693       .     S
N362  C350   1.36693       .     S
C350  N362   1.36693       .     S
H387  C350   0.94791       .     S
C350  H387   0.94791       .     S
H388  H351   0.43295       .     S
H351  H388   0.43295       .     S
H387  H352   0.43295       .     S
H352  H387   0.43295       .     S
C354  N353   1.61238       .     S
N353  C354   1.61238       .     S
C358  N353   1.63221       .     S
N353  C358   1.63221       .     S
N362  N353   0.37978       .     S
N353  N362   0.37978       .     S
C363  N353   1.42125       .     S
N353  C363   1.42125       .     S
C367  N353   1.48411       .     S
N353  C367   1.48411       .     S
C371  N353   1.63221       .     S
N353  C371   1.63221       .     S
C374  N353   1.61238       .     S
N353  C374   1.61238       .     S
C379  N353   1.48411       .     S
N353  C379   1.48411       .     S
C382  N353   1.42125       .     S
N353  C382   1.42125       .     S
H355  C354   0.98791       .     S
C354  H355   0.98791       .     S
H356  C354   0.97511       .     S
C354  H356   0.97511       .     S
H357  C354   0.98296       .     S
C354  H357   0.98296       .     S
C358  C354   0.92412       .     S
C354  C358   0.92412       .     S
H360  C354   0.90112       .     S
C354  H360   0.90112       .     S
N362  C354   1.42125       .     S
C354  N362   1.42125       .     S
C379  C354   1.64602       .     S
C354  C379   1.64602       .     S
C382  C354   1.52670       .     S
C354  C382   1.52670       .     S
H385  C354   1.20310       .     S
C354  H385   1.20310       .     S
C358  H355   0.56688       .     S
H355  C358   0.56688       .     S
C382  H357   1.20310       .     S
H357  C382   1.20310       .     S
H385  H357   0.31522       .     S
H357  H385   0.31522       .     S
H359  C358   0.97699       .     S
C358  H359   0.97699       .     S
H360  C358   0.98134       .     S
C358  H360   0.98134       .     S
H361  C358   0.98248       .     S
C358  H361   0.98248       .     S
N362  C358   1.48411       .     S
C358  N362   1.48411       .     S
C379  C358   1.21529       .     S
C358  C379   1.21529       .     S
H380  C358   1.14046       .     S
C358  H380   1.14046       .     S
C382  C358   1.64602       .     S
C358  C382   1.64602       .     S
C379  H359   1.14046       .     S
H359  C379   1.14046       .     S
H380  H359   0.28483       .     S
H359  H380   0.28483       .     S
C363  N362   1.61238       .     S
N362  C363   1.61238       .     S
C367  N362   1.63221       .     S
N362  C367   1.63221       .     S
C371  N362   1.48411       .     S
N362  C371   1.48411       .     S
C374  N362   1.42125       .     S
N362  C374   1.42125       .     S
C379  N362   1.63221       .     S
N362  C379   1.63221       .     S
C382  N362   1.61238       .     S
N362  C382   1.61238       .     S
H364  C363   0.98791       .     S
C363  H364   0.98791       .     S
H365  C363   0.97511       .     S
C363  H365   0.97511       .     S
H366  C363   0.98296       .     S
C363  H366   0.98296       .     S
C367  C363   0.92412       .     S
C363  C367   0.92412       .     S
H369  C363   0.90113       .     S
C363  H369   0.90113       .     S
C371  C363   1.64602       .     S
C363  C371   1.64602       .     S
C374  C363   1.52670       .     S
C363  C374   1.52670       .     S
H377  C363   1.20310       .     S
C363  H377   1.20310       .     S
C367  H364   0.56688       .     S
H364  C367   0.56688       .     S
C374  H366   1.20310       .     S
H366  C374   1.20310       .     S
H377  H366   0.31522       .     S
H366  H377   0.31522       .     S
H368  C367   0.97699       .     S
C367  H368   0.97699       .     S
H369  C367   0.98134       .     S
C367  H369   0.98134       .     S
H370  C367   0.98248       .     S
C367  H370   0.98248       .     S
C371  C367   1.21529       .     S
C367  C371   1.21529       .     S
H372  C367   1.14046       .     S
C367  H372   1.14046       .     S
C374  C367   1.64602       .     S
C367  C374   1.64602       .     S
C371  H368   1.14046       .     S
H368  C371   1.14046       .     S
H372  H368   0.28483       .     S
H368  H372   0.28483       .     S
H372  C371   0.97699       .     S
C371  H372   0.97699       .     S
H373  C371   0.98134       .     S
C371  H373   0.98134       .     S
C374  C371   0.92412       .     S
C371  C374   0.92412       .     S
H375  C371   0.56688       .     S
C371  H375   0.56688       .     S
H378  C371   0.98248       .     S
C371  H378   0.98248       .     S
C374  H373   0.90113       .     S
H373  C374   0.90113       .     S
H375  C374   0.98791       .     S
C374  H375   0.98791       .     S
H376  C374   0.97511       .     S
C374  H376   0.97511       .     S
H377  C374   0.98296       .     S
C374  H377   0.98296       .     S
H380  C379   0.97699       .     S
C379  H380   0.97699       .     S
H381  C379   0.98134       .     S
C379  H381   0.98134       .     S
C382  C379   0.92412       .     S
C379  C382   0.92412       .     S
H383  C379   0.56688       .     S
C379  H383   0.56688       .     S
H386  C379   0.98248       .     S
C379  H386   0.98248       .     S
C382  H381   0.90113       .     S
H381  C382   0.90113       .     S
H383  C382   0.98791       .     S
C382  H383   0.98791       .     S
H384  C382   0.97511       .     S
C382  H384   0.97511       .     S
H385  C382   0.98296       .     S
C382  H385   0.98296       .     S
