data_I
_chemical_name_common  '/data/user2/wty/HOF/MOFDiff/mofdiff/data/test/5-13'
_cell_length_a 26.73750
_cell_length_b 26.73750
_cell_length_c 26.73750
_cell_angle_alpha 90.00000
_cell_angle_beta  90.00000
_cell_angle_gamma 90.00000
_space_group_name_H-M_alt      'P 1'


loop_
_space_group_symop_operation_xyz
  'x, y, z' 

loop_
_atom_site_label
_atom_site_fract_x
_atom_site_fract_y
_atom_site_fract_z
_atom_site_type_symbol
Bi0        0.5      0.5   0.3437    Bi
I1       0.574    0.574   0.2962     I
I2       0.426    0.426   0.2962     I
C3      0.8591   0.3265   0.1409     C
N4      0.8168   0.3035     0.13     N
H5      0.8008   0.3108   0.1022     H
H6      0.8046   0.2808   0.1506     H
N7      0.8839   0.3611   0.1161     N
H8      0.8723   0.3722   0.0874     H
N9        0.87   0.3035   0.1832     N
H10     0.8978   0.3108   0.1992     H
H11     0.8494   0.2808   0.1954     H
H12     0.9126   0.3722   0.1277     H
Bi13       0.5   0.6563      0.5    Bi
I14      0.574   0.7038    0.426     I
I15      0.426   0.7038    0.574     I
N16     0.7738   0.2262   0.2262     N
O17     0.7536   0.2464   0.1866     O
O18     0.8134   0.2464   0.2464     O
O19     0.7536   0.1866   0.2464     O
Bi20       0.5      0.5   0.6563    Bi
I21      0.426    0.574   0.7038     I
I22      0.574    0.426   0.7038     I
S23     0.2954   0.5158   0.8833     S
O24     0.2696     0.49   0.9234     O
O25     0.2579   0.5419   0.8546     O
O26     0.3475   0.5156   0.8979     O
C27     0.3051   0.3418   0.7319     C
C28       0.31   0.3838   0.7686     C
C29     0.3308   0.4306   0.7594     C
H30     0.3477   0.4368   0.7287     H
C31     0.3267   0.4683   0.7949     C
H32     0.3409   0.5003   0.7886     H
C33      0.302   0.4593   0.8397     C
C34     0.2813   0.4125    0.849     C
H35     0.2643   0.4063   0.8796     H
C36     0.2853   0.3748   0.8134     C
H37     0.2711   0.3428   0.8198     H
S38     0.5158   0.2954   0.8833     S
O39       0.49   0.2696   0.9234     O
O40     0.5419   0.2579   0.8546     O
O41     0.5156   0.3475   0.8979     O
C42     0.3418   0.3051   0.7319     C
C43     0.3838     0.31   0.7686     C
C44     0.4306   0.3308   0.7594     C
H45     0.4368   0.3477   0.7287     H
C46     0.4683   0.3267   0.7949     C
H47     0.5003   0.3409   0.7886     H
C48     0.4593    0.302   0.8397     C
C49     0.4125   0.2813    0.849     C
H50     0.4063   0.2643   0.8796     H
C51     0.3748   0.2853   0.8134     C
H52     0.3428   0.2711   0.8198     H
S53     0.1167   0.5158   0.7046     S
O54     0.0766     0.49   0.7304     O
O55     0.1454   0.5419   0.7421     O
O56     0.1021   0.5156   0.6525     O
C57     0.2681   0.3418   0.6949     C
C58     0.2314   0.3838     0.69     C
C59     0.2406   0.4306   0.6692     C
H60     0.2713   0.4368   0.6523     H
C61     0.2051   0.4683   0.6733     C
H62     0.2114   0.5003   0.6591     H
C63     0.1603   0.4593    0.698     C
C64      0.151   0.4125   0.7187     C
H65     0.1204   0.4063   0.7357     H
C66     0.1866   0.3748   0.7147     C
H67     0.1802   0.3428   0.7289     H
S68     0.5158   0.1167   0.7046     S
O69       0.49   0.0766   0.7304     O
O70     0.5419   0.1454   0.7421     O
O71     0.5156   0.1021   0.6525     O
C72     0.3418   0.2681   0.6949     C
C73     0.3838   0.2314     0.69     C
C74     0.4306   0.2406   0.6692     C
H75     0.4368   0.2713   0.6523     H
C76     0.4683   0.2051   0.6733     C
H77     0.5003   0.2114   0.6591     H
C78     0.4593   0.1603    0.698     C
C79     0.4125    0.151   0.7187     C
H80     0.4063   0.1204   0.7357     H
C81     0.3748   0.1866   0.7147     C
H82     0.3428   0.1802   0.7289     H
S83     0.1167   0.2954   0.4842     S
O84     0.0766   0.2696     0.51     O
O85     0.1454   0.2579   0.4581     O
O86     0.1021   0.3475   0.4844     O
C87     0.2681   0.3051   0.6582     C
C88     0.2314     0.31   0.6162     C
C89     0.2406   0.3308   0.5694     C
H90     0.2713   0.3477   0.5632     H
C91     0.2051   0.3267   0.5317     C
H92     0.2114   0.3409   0.4997     H
C93     0.1603    0.302   0.5407     C
C94      0.151   0.2813   0.5875     C
H95     0.1204   0.2643   0.5937     H
C96     0.1866   0.2853   0.6252     C
H97     0.1802   0.2711   0.6572     H
S98     0.2954   0.1167   0.4842     S
O99     0.2696   0.0766     0.51     O
O100    0.2579   0.1454   0.4581     O
O101    0.3475   0.1021   0.4844     O
C102    0.3051   0.2681   0.6582     C
C103      0.31   0.2314   0.6162     C
C104    0.3308   0.2406   0.5694     C
H105    0.3477   0.2713   0.5632     H
C106    0.3267   0.2051   0.5317     C
H107    0.3409   0.2114   0.4997     H
C108     0.302   0.1603   0.5407     C
C109    0.2813    0.151   0.5875     C
H110    0.2643   0.1204   0.5937     H
C111    0.2853   0.1866   0.6252     C
H112    0.2711   0.1802   0.6572     H
Na113      0.0      0.5     0.75    Na
Na114     0.25      0.0      0.5    Na
Na115      0.5      0.0     0.75    Na
Na116      0.0     0.25      0.5    Na
S117    0.4842   0.2954   0.1167     S
O118      0.51   0.2696   0.0766     O
O119    0.4581   0.2579   0.1454     O
O120    0.4844   0.3475   0.1021     O
C121    0.6582   0.3051   0.2681     C
C122    0.6162     0.31   0.2314     C
C123    0.5694   0.3308   0.2406     C
H124    0.5632   0.3477   0.2713     H
C125    0.5317   0.3267   0.2051     C
H126    0.4997   0.3409   0.2114     H
C127    0.5407    0.302   0.1603     C
C128    0.5875   0.2813    0.151     C
H129    0.5937   0.2643   0.1204     H
C130    0.6252   0.2853   0.1866     C
H131    0.6572   0.2711   0.1802     H
S132    0.7046   0.5158   0.1167     S
O133    0.7304     0.49   0.0766     O
O134    0.7421   0.5419   0.1454     O
O135    0.6525   0.5156   0.1021     O
C136    0.6949   0.3418   0.2681     C
C137      0.69   0.3838   0.2314     C
C138    0.6692   0.4306   0.2406     C
H139    0.6523   0.4368   0.2713     H
C140    0.6733   0.4683   0.2051     C
H141    0.6591   0.5003   0.2114     H
C142     0.698   0.4593   0.1603     C
C143    0.7187   0.4125    0.151     C
H144    0.7357   0.4063   0.1204     H
C145    0.7147   0.3748   0.1866     C
H146    0.7289   0.3428   0.1802     H
S147    0.4842   0.1167   0.2954     S
O148      0.51   0.0766   0.2696     O
O149    0.4581   0.1454   0.2579     O
O150    0.4844   0.1021   0.3475     O
C151    0.6582   0.2681   0.3051     C
C152    0.6162   0.2314     0.31     C
C153    0.5694   0.2406   0.3308     C
H154    0.5632   0.2713   0.3477     H
C155    0.5317   0.2051   0.3267     C
H156    0.4997   0.2114   0.3409     H
C157    0.5407   0.1603    0.302     C
C158    0.5875    0.151   0.2813     C
H159    0.5937   0.1204   0.2643     H
C160    0.6252   0.1866   0.2853     C
H161    0.6572   0.1802   0.2711     H
S162    0.8833   0.5158   0.2954     S
O163    0.9234     0.49   0.2696     O
O164    0.8546   0.5419   0.2579     O
O165    0.8979   0.5156   0.3475     O
C166    0.7319   0.3418   0.3051     C
C167    0.7686   0.3838     0.31     C
C168    0.7594   0.4306   0.3308     C
H169    0.7287   0.4368   0.3477     H
C170    0.7949   0.4683   0.3267     C
H171    0.7886   0.5003   0.3409     H
C172    0.8397   0.4593    0.302     C
C173     0.849   0.4125   0.2813     C
H174    0.8796   0.4063   0.2643     H
C175    0.8134   0.3748   0.2853     C
H176    0.8198   0.3428   0.2711     H
S177    0.7046   0.1167   0.5158     S
O178    0.7304   0.0766     0.49     O
O179    0.7421   0.1454   0.5419     O
O180    0.6525   0.1021   0.5156     O
C181    0.6949   0.2681   0.3418     C
C182      0.69   0.2314   0.3838     C
C183    0.6692   0.2406   0.4306     C
H184    0.6523   0.2713   0.4368     H
C185    0.6733   0.2051   0.4683     C
H186    0.6591   0.2114   0.5003     H
C187     0.698   0.1603   0.4593     C
C188    0.7187    0.151   0.4125     C
H189    0.7357   0.1204   0.4063     H
C190    0.7147   0.1866   0.3748     C
H191    0.7289   0.1802   0.3428     H
S192    0.8833   0.2954   0.5158     S
O193    0.9234   0.2696     0.49     O
O194    0.8546   0.2579   0.5419     O
O195    0.8979   0.3475   0.5156     O
C196    0.7319   0.3051   0.3418     C
C197    0.7686     0.31   0.3838     C
C198    0.7594   0.3308   0.4306     C
H199    0.7287   0.3477   0.4368     H
C200    0.7949   0.3267   0.4683     C
H201    0.7886   0.3409   0.5003     H
C202    0.8397    0.302   0.4593     C
C203     0.849   0.2813   0.4125     C
H204    0.8796   0.2643   0.4063     H
C205    0.8134   0.2853   0.3748     C
H206    0.8198   0.2711   0.3428     H
Na207      0.0      0.5     0.25    Na
Na208     0.75      0.0      0.5    Na
Na209      0.5      0.0     0.25    Na
Na210      0.5     0.25      0.0    Na
O211    0.4234   0.2304     0.01     O
O212    0.5766   0.2304     0.99     O
Na213     0.75      0.5      0.0    Na
O214    0.7696   0.5766     0.01     O
O215    0.7304     0.51   0.9234     O
O216    0.7696   0.4234     0.99     O
Na217     0.25      0.5      0.0    Na
O218    0.2304   0.4234     0.01     O
O219    0.2696     0.51   0.0766     O
O220    0.2304   0.5766     0.99     O
Bi221   0.3437      0.5      0.5    Bi
I222    0.2962    0.574    0.574     I
I223    0.2962    0.426    0.426     I
Bi224      0.5   0.3437      0.5    Bi
I225     0.574   0.2962    0.574     I
I226     0.426   0.2962    0.426     I
Bi227   0.6563      0.5      0.5    Bi
I228    0.7038    0.426    0.574     I
I229    0.7038    0.574    0.426     I
I230    0.4403   0.4403   0.4403     I
Bi231   0.5511   0.4489   0.4489    Bi
I232    0.6134   0.3866   0.3866     I
I233    0.5597   0.5597   0.4403     I
Bi234   0.5511   0.5511   0.5511    Bi
I235    0.6134   0.6134   0.6134     I
I236    0.5597   0.4403   0.5597     I
I237    0.4403   0.5597   0.5597     I
Bi238   0.4489   0.4489   0.5511    Bi
I239    0.3866   0.3866   0.6134     I
Bi240   0.4489   0.5511   0.4489    Bi
I241    0.3866   0.6134   0.3866     I
loop_
_geom_bond_atom_site_label_1
_geom_bond_atom_site_label_2
_geom_bond_distance
_geom_bond_site_symmetry_2
_ccdc_geom_bond_type
H6    O17    1.90576       .     S
O17   H6     1.90576       .     S
H11   O18    1.90576       .     S
O18   H11    1.90576       .     S
Bi0   I1     3.07286       .     S
I1    Bi0    3.07286       .     S
Bi0   I2     3.07286       .     S
I2    Bi0    3.07286       .     S
C3    N4     1.31995       .     S
N4    C3     1.31995       .     S
C3    N7     1.31728       .     S
N7    C3     1.31728       .     S
C3    N9     1.31995       .     S
N9    C3     1.31995       .     S
N4    H5     0.87955       .     S
H5    N4     0.87955       .     S
N4    H6     0.88213       .     S
H6    N4     0.88213       .     S
N7    H8     0.87928       .     S
H8    N7     0.87928       .     S
N7    H12    0.87928       .     S
H12   N7     0.87928       .     S
N9    H10    0.87955       .     S
H10   N9     0.87955       .     S
N9    H11    0.88213       .     S
H11   N9     0.88213       .     S
Bi13  I14    3.07286       .     S
I14   Bi13   3.07286       .     S
Bi13  I15    3.07286       .     S
I15   Bi13   3.07286       .     S
N16   O17    1.30556       .     S
O17   N16    1.30556       .     S
N16   O18    1.30556       .     S
O18   N16    1.30556       .     S
N16   O19    1.30556       .     S
O19   N16    1.30556       .     S
Bi20  I21    3.07287       .     S
I21   Bi20   3.07287       .     S
Bi20  I22    3.07287       .     S
I22   Bi20   3.07287       .     S
S23   O24    1.44958       .     S
O24   S23    1.44958       .     S
S23   O25    1.44262       .     S
O25   S23    1.44262       .     S
S23   O26    1.44670       .     S
O26   S23    1.44670       .     S
S23   C33    1.91631       .     S
C33   S23    1.91631       .     S
O24   Na217  2.13092   1_556     S
Na217 O24    2.13092   1_554     S
C27   C28    1.49704       .     S
C28   C27    1.49704       .     S
C27   C42    1.38772       .     S
C42   C27    1.38772       .     S
C27   C57    1.39906       .     S
C57   C27    1.39906       .     S
C28   C29    1.39125       .     S
C29   C28    1.39125       .     S
C28   C36    1.38884       .     S
C36   C28    1.38884       .     S
C29   H30    0.95155       .     S
H30   C29    0.95155       .     S
C29   C31    1.38890       .     S
C31   C29    1.38890       .     S
C31   H32    0.95109       .     S
H32   C31    0.95109       .     S
C31   C33    1.38884       .     S
C33   C31    1.38884       .     S
C33   C34    1.39066       .     S
C34   C33    1.39066       .     S
C34   H35    0.95052       .     S
H35   C34    0.95052       .     S
C34   C36    1.39052       .     S
C36   C34    1.39052       .     S
C36   H37    0.95157       .     S
H37   C36    0.95157       .     S
S38   O39    1.44958       .     S
O39   S38    1.44958       .     S
S38   O40    1.44262       .     S
O40   S38    1.44262       .     S
S38   O41    1.44670       .     S
O41   S38    1.44670       .     S
S38   C48    1.91631       .     S
C48   S38    1.91631       .     S
O39   Na210  2.13092   1_556     S
Na210 O39    2.13092   1_554     S
C42   C43    1.49704       .     S
C43   C42    1.49704       .     S
C42   C72    1.39906       .     S
C72   C42    1.39906       .     S
C43   C44    1.39125       .     S
C44   C43    1.39125       .     S
C43   C51    1.38884       .     S
C51   C43    1.38884       .     S
C44   H45    0.95155       .     S
H45   C44    0.95155       .     S
C44   C46    1.38890       .     S
C46   C44    1.38890       .     S
C46   H47    0.95109       .     S
H47   C46    0.95109       .     S
C46   C48    1.38884       .     S
C48   C46    1.38884       .     S
C48   C49    1.39066       .     S
C49   C48    1.39066       .     S
C49   H50    0.95052       .     S
H50   C49    0.95052       .     S
C49   C51    1.39052       .     S
C51   C49    1.39052       .     S
C51   H52    0.95157       .     S
H52   C51    0.95157       .     S
S53   O54    1.44958       .     S
O54   S53    1.44958       .     S
S53   O55    1.44262       .     S
O55   S53    1.44262       .     S
S53   O56    1.44670       .     S
O56   S53    1.44670       .     S
S53   C63    1.91631       .     S
C63   S53    1.91631       .     S
O54   Na113  2.13092       .     S
Na113 O54    2.13092       .     S
C57   C58    1.49704       .     S
C58   C57    1.49704       .     S
C57   C87    1.38772       .     S
C87   C57    1.38772       .     S
C58   C59    1.39125       .     S
C59   C58    1.39125       .     S
C58   C66    1.38884       .     S
C66   C58    1.38884       .     S
C59   H60    0.95155       .     S
H60   C59    0.95155       .     S
C59   C61    1.38890       .     S
C61   C59    1.38890       .     S
C61   H62    0.95109       .     S
H62   C61    0.95109       .     S
C61   C63    1.38884       .     S
C63   C61    1.38884       .     S
C63   C64    1.39066       .     S
C64   C63    1.39066       .     S
C64   H65    0.95052       .     S
H65   C64    0.95052       .     S
C64   C66    1.39052       .     S
C66   C64    1.39052       .     S
C66   H67    0.95157       .     S
H67   C66    0.95157       .     S
S68   O69    1.44958       .     S
O69   S68    1.44958       .     S
S68   O70    1.44262       .     S
O70   S68    1.44262       .     S
S68   O71    1.44670       .     S
O71   S68    1.44670       .     S
S68   C78    1.91631       .     S
C78   S68    1.91631       .     S
O69   Na115  2.13092       .     S
Na115 O69    2.13092       .     S
C72   C73    1.49704       .     S
C73   C72    1.49704       .     S
C72   C102   1.38772       .     S
C102  C72    1.38772       .     S
C73   C74    1.39125       .     S
C74   C73    1.39125       .     S
C73   C81    1.38884       .     S
C81   C73    1.38884       .     S
C74   H75    0.95155       .     S
H75   C74    0.95155       .     S
C74   C76    1.38890       .     S
C76   C74    1.38890       .     S
C76   H77    0.95109       .     S
H77   C76    0.95109       .     S
C76   C78    1.38884       .     S
C78   C76    1.38884       .     S
C78   C79    1.39066       .     S
C79   C78    1.39066       .     S
C79   H80    0.95052       .     S
H80   C79    0.95052       .     S
C79   C81    1.39052       .     S
C81   C79    1.39052       .     S
C81   H82    0.95157       .     S
H82   C81    0.95157       .     S
S83   O84    1.44958       .     S
O84   S83    1.44958       .     S
S83   O85    1.44262       .     S
O85   S83    1.44262       .     S
S83   O86    1.44670       .     S
O86   S83    1.44670       .     S
S83   C93    1.91631       .     S
C93   S83    1.91631       .     S
O84   Na116  2.13092       .     S
Na116 O84    2.13092       .     S
C87   C88    1.49704       .     S
C88   C87    1.49704       .     S
C87   C102   1.39906       .     S
C102  C87    1.39906       .     S
C88   C89    1.39125       .     S
C89   C88    1.39125       .     S
C88   C96    1.38884       .     S
C96   C88    1.38884       .     S
C89   H90    0.95155       .     S
H90   C89    0.95155       .     S
C89   C91    1.38890       .     S
C91   C89    1.38890       .     S
C91   H92    0.95109       .     S
H92   C91    0.95109       .     S
C91   C93    1.38884       .     S
C93   C91    1.38884       .     S
C93   C94    1.39066       .     S
C94   C93    1.39066       .     S
C94   H95    0.95052       .     S
H95   C94    0.95052       .     S
C94   C96    1.39052       .     S
C96   C94    1.39052       .     S
C96   H97    0.95157       .     S
H97   C96    0.95157       .     S
S98   O99    1.44958       .     S
O99   S98    1.44958       .     S
S98   O100   1.44262       .     S
O100  S98    1.44262       .     S
S98   O101   1.44670       .     S
O101  S98    1.44670       .     S
S98   C108   1.91631       .     S
C108  S98    1.91631       .     S
O99   Na114  2.13092       .     S
Na114 O99    2.13092       .     S
C102  C103   1.49704       .     S
C103  C102   1.49704       .     S
C103  C104   1.39125       .     S
C104  C103   1.39125       .     S
C103  C111   1.38884       .     S
C111  C103   1.38884       .     S
C104  H105   0.95155       .     S
H105  C104   0.95155       .     S
C104  C106   1.38890       .     S
C106  C104   1.38890       .     S
C106  H107   0.95109       .     S
H107  C106   0.95109       .     S
C106  C108   1.38884       .     S
C108  C106   1.38884       .     S
C108  C109   1.39066       .     S
C109  C108   1.39066       .     S
C109  H110   0.95052       .     S
H110  C109   0.95052       .     S
C109  C111   1.39052       .     S
C111  C109   1.39052       .     S
C111  H112   0.95157       .     S
H112  C111   0.95157       .     S
Na116 O193   2.13092   1_455     S
O193  Na116  2.13092   1_655     S
S117  O118   1.44958       .     S
O118  S117   1.44958       .     S
S117  O119   1.44262       .     S
O119  S117   1.44262       .     S
S117  O120   1.44670       .     S
O120  S117   1.44670       .     S
S117  C127   1.91631       .     S
C127  S117   1.91631       .     S
O118  Na210  2.13092       .     S
Na210 O118   2.13092       .     S
C121  C122   1.49704       .     S
C122  C121   1.49704       .     S
C121  C136   1.38772       .     S
C136  C121   1.38772       .     S
C121  C151   1.39906       .     S
C151  C121   1.39906       .     S
C122  C123   1.39125       .     S
C123  C122   1.39125       .     S
C122  C130   1.38884       .     S
C130  C122   1.38884       .     S
C123  H124   0.95155       .     S
H124  C123   0.95155       .     S
C123  C125   1.38890       .     S
C125  C123   1.38890       .     S
C125  H126   0.95109       .     S
H126  C125   0.95109       .     S
C125  C127   1.38884       .     S
C127  C125   1.38884       .     S
C127  C128   1.39066       .     S
C128  C127   1.39066       .     S
C128  H129   0.95052       .     S
H129  C128   0.95052       .     S
C128  C130   1.39052       .     S
C130  C128   1.39052       .     S
C130  H131   0.95157       .     S
H131  C130   0.95157       .     S
S132  O133   1.44958       .     S
O133  S132   1.44958       .     S
S132  O134   1.44262       .     S
O134  S132   1.44262       .     S
S132  O135   1.44670       .     S
O135  S132   1.44670       .     S
S132  C142   1.91631       .     S
C142  S132   1.91631       .     S
O133  Na213  2.13092       .     S
Na213 O133   2.13092       .     S
C136  C137   1.49704       .     S
C137  C136   1.49704       .     S
C136  C166   1.39906       .     S
C166  C136   1.39906       .     S
C137  C138   1.39125       .     S
C138  C137   1.39125       .     S
C137  C145   1.38884       .     S
C145  C137   1.38884       .     S
C138  H139   0.95155       .     S
H139  C138   0.95155       .     S
C138  C140   1.38890       .     S
C140  C138   1.38890       .     S
C140  H141   0.95109       .     S
H141  C140   0.95109       .     S
C140  C142   1.38884       .     S
C142  C140   1.38884       .     S
C142  C143   1.39066       .     S
C143  C142   1.39066       .     S
C143  H144   0.95052       .     S
H144  C143   0.95052       .     S
C143  C145   1.39052       .     S
C145  C143   1.39052       .     S
C145  H146   0.95157       .     S
H146  C145   0.95157       .     S
S147  O148   1.44958       .     S
O148  S147   1.44958       .     S
S147  O149   1.44262       .     S
O149  S147   1.44262       .     S
S147  O150   1.44670       .     S
O150  S147   1.44670       .     S
S147  C157   1.91631       .     S
C157  S147   1.91631       .     S
O148  Na209  2.13092       .     S
Na209 O148   2.13092       .     S
C151  C152   1.49704       .     S
C152  C151   1.49704       .     S
C151  C181   1.38772       .     S
C181  C151   1.38772       .     S
C152  C153   1.39125       .     S
C153  C152   1.39125       .     S
C152  C160   1.38884       .     S
C160  C152   1.38884       .     S
C153  H154   0.95155       .     S
H154  C153   0.95155       .     S
C153  C155   1.38890       .     S
C155  C153   1.38890       .     S
C155  H156   0.95109       .     S
H156  C155   0.95109       .     S
C155  C157   1.38884       .     S
C157  C155   1.38884       .     S
C157  C158   1.39066       .     S
C158  C157   1.39066       .     S
C158  H159   0.95052       .     S
H159  C158   0.95052       .     S
C158  C160   1.39052       .     S
C160  C158   1.39052       .     S
C160  H161   0.95157       .     S
H161  C160   0.95157       .     S
S162  O163   1.44958       .     S
O163  S162   1.44958       .     S
S162  O164   1.44262       .     S
O164  S162   1.44262       .     S
S162  O165   1.44670       .     S
O165  S162   1.44670       .     S
S162  C172   1.91631       .     S
C172  S162   1.91631       .     S
O163  Na207  2.13092   1_655     S
Na207 O163   2.13092   1_455     S
C166  C167   1.49704       .     S
C167  C166   1.49704       .     S
C166  C196   1.38772       .     S
C196  C166   1.38772       .     S
C167  C168   1.39125       .     S
C168  C167   1.39125       .     S
C167  C175   1.38884       .     S
C175  C167   1.38884       .     S
C168  H169   0.95155       .     S
H169  C168   0.95155       .     S
C168  C170   1.38890       .     S
C170  C168   1.38890       .     S
C170  H171   0.95109       .     S
H171  C170   0.95109       .     S
C170  C172   1.38884       .     S
C172  C170   1.38884       .     S
C172  C173   1.39066       .     S
C173  C172   1.39066       .     S
C173  H174   0.95052       .     S
H174  C173   0.95052       .     S
C173  C175   1.39052       .     S
C175  C173   1.39052       .     S
C175  H176   0.95157       .     S
H176  C175   0.95157       .     S
S177  O178   1.44958       .     S
O178  S177   1.44958       .     S
S177  O179   1.44262       .     S
O179  S177   1.44262       .     S
S177  O180   1.44670       .     S
O180  S177   1.44670       .     S
S177  C187   1.91631       .     S
C187  S177   1.91631       .     S
O178  Na208  2.13092       .     S
Na208 O178   2.13092       .     S
C181  C182   1.49704       .     S
C182  C181   1.49704       .     S
C181  C196   1.39906       .     S
C196  C181   1.39906       .     S
C182  C183   1.39125       .     S
C183  C182   1.39125       .     S
C182  C190   1.38884       .     S
C190  C182   1.38884       .     S
C183  H184   0.95155       .     S
H184  C183   0.95155       .     S
C183  C185   1.38890       .     S
C185  C183   1.38890       .     S
C185  H186   0.95109       .     S
H186  C185   0.95109       .     S
C185  C187   1.38884       .     S
C187  C185   1.38884       .     S
C187  C188   1.39066       .     S
C188  C187   1.39066       .     S
C188  H189   0.95052       .     S
H189  C188   0.95052       .     S
C188  C190   1.39052       .     S
C190  C188   1.39052       .     S
C190  H191   0.95157       .     S
H191  C190   0.95157       .     S
S192  O193   1.44958       .     S
O193  S192   1.44958       .     S
S192  O194   1.44262       .     S
O194  S192   1.44262       .     S
S192  O195   1.44670       .     S
O195  S192   1.44670       .     S
S192  C202   1.91631       .     S
C202  S192   1.91631       .     S
C196  C197   1.49704       .     S
C197  C196   1.49704       .     S
C197  C198   1.39125       .     S
C198  C197   1.39125       .     S
C197  C205   1.38884       .     S
C205  C197   1.38884       .     S
C198  H199   0.95155       .     S
H199  C198   0.95155       .     S
C198  C200   1.38890       .     S
C200  C198   1.38890       .     S
C200  H201   0.95109       .     S
H201  C200   0.95109       .     S
C200  C202   1.38884       .     S
C202  C200   1.38884       .     S
C202  C203   1.39066       .     S
C203  C202   1.39066       .     S
C203  H204   0.95052       .     S
H204  C203   0.95052       .     S
C203  C205   1.39052       .     S
C205  C203   1.39052       .     S
C205  H206   0.95157       .     S
H206  C205   0.95157       .     S
Na210 O211   2.13092       .     S
O211  Na210  2.13092       .     S
Na210 O212   2.13092   1_554     S
O212  Na210  2.13092   1_556     S
Na213 O214   2.13092       .     S
O214  Na213  2.13092       .     S
Na213 O215   2.13092   1_554     S
O215  Na213  2.13092   1_556     S
Na213 O216   2.13092   1_554     S
O216  Na213  2.13092   1_556     S
Na217 O218   2.13092       .     S
O218  Na217  2.13092       .     S
Na217 O219   2.13092       .     S
O219  Na217  2.13092       .     S
Na217 O220   2.13092   1_554     S
O220  Na217  2.13092   1_556     S
Bi221 I222   3.07286       .     S
I222  Bi221  3.07286       .     S
Bi221 I223   3.07286       .     S
I223  Bi221  3.07286       .     S
Bi224 I225   3.07286       .     S
I225  Bi224  3.07286       .     S
Bi224 I226   3.07286       .     S
I226  Bi224  3.07286       .     S
Bi227 I228   3.07287       .     S
I228  Bi227  3.07287       .     S
Bi227 I229   3.07286       .     S
I229  Bi227  3.07286       .     S
I230  Bi231  2.98031       .     S
Bi231 I230   2.98031       .     S
I230  Bi238  2.98031       .     S
Bi238 I230   2.98031       .     S
I230  Bi240  2.98031       .     S
Bi240 I230   2.98031       .     S
Bi231 I232   2.88516       .     S
I232  Bi231  2.88516       .     S
Bi231 I233   2.98031       .     S
I233  Bi231  2.98031       .     S
Bi231 I236   2.98031       .     S
I236  Bi231  2.98031       .     S
I233  Bi234  2.98031       .     S
Bi234 I233   2.98031       .     S
I233  Bi240  2.98031       .     S
Bi240 I233   2.98031       .     S
Bi234 I235   2.88516       .     S
I235  Bi234  2.88516       .     S
Bi234 I236   2.98031       .     S
I236  Bi234  2.98031       .     S
Bi234 I237   2.98031       .     S
I237  Bi234  2.98031       .     S
I236  Bi238  2.98031       .     S
Bi238 I236   2.98031       .     S
I237  Bi238  2.98031       .     S
Bi238 I237   2.98031       .     S
I237  Bi240  2.98031       .     S
Bi240 I237   2.98031       .     S
Bi238 I239   2.88516       .     S
I239  Bi238  2.88516       .     S
Bi240 I241   2.88516       .     S
I241  Bi240  2.88516       .     S
O17   H6     1.90576       .     S
H6    O17    1.90576       .     S
O18   H11    1.90576       .     S
H11   O18    1.90576       .     S
I1    Bi0    3.07286       .     S
Bi0   I1     3.07286       .     S
I2    Bi0    3.07286       .     S
Bi0   I2     3.07286       .     S
N4    C3     1.31995       .     S
C3    N4     1.31995       .     S
N7    C3     1.31728       .     S
C3    N7     1.31728       .     S
N9    C3     1.31995       .     S
C3    N9     1.31995       .     S
H5    N4     0.87955       .     S
N4    H5     0.87955       .     S
H6    N4     0.88213       .     S
N4    H6     0.88213       .     S
H8    N7     0.87928       .     S
N7    H8     0.87928       .     S
H12   N7     0.87928       .     S
N7    H12    0.87928       .     S
H10   N9     0.87955       .     S
N9    H10    0.87955       .     S
H11   N9     0.88213       .     S
N9    H11    0.88213       .     S
I14   Bi13   3.07286       .     S
Bi13  I14    3.07286       .     S
I15   Bi13   3.07286       .     S
Bi13  I15    3.07286       .     S
O17   N16    1.30556       .     S
N16   O17    1.30556       .     S
O18   N16    1.30556       .     S
N16   O18    1.30556       .     S
O19   N16    1.30556       .     S
N16   O19    1.30556       .     S
I21   Bi20   3.07287       .     S
Bi20  I21    3.07287       .     S
I22   Bi20   3.07287       .     S
Bi20  I22    3.07287       .     S
O24   S23    1.44958       .     S
S23   O24    1.44958       .     S
O25   S23    1.44262       .     S
S23   O25    1.44262       .     S
O26   S23    1.44670       .     S
S23   O26    1.44670       .     S
C33   S23    1.91631       .     S
S23   C33    1.91631       .     S
Na217 O24    2.13092   1_554     S
O24   Na217  2.13092   1_556     S
C28   C27    1.49704       .     S
C27   C28    1.49704       .     S
C42   C27    1.38772       .     S
C27   C42    1.38772       .     S
C57   C27    1.39906       .     S
C27   C57    1.39906       .     S
C29   C28    1.39125       .     S
C28   C29    1.39125       .     S
C36   C28    1.38884       .     S
C28   C36    1.38884       .     S
H30   C29    0.95155       .     S
C29   H30    0.95155       .     S
C31   C29    1.38890       .     S
C29   C31    1.38890       .     S
H32   C31    0.95109       .     S
C31   H32    0.95109       .     S
C33   C31    1.38884       .     S
C31   C33    1.38884       .     S
C34   C33    1.39066       .     S
C33   C34    1.39066       .     S
H35   C34    0.95052       .     S
C34   H35    0.95052       .     S
C36   C34    1.39052       .     S
C34   C36    1.39052       .     S
H37   C36    0.95157       .     S
C36   H37    0.95157       .     S
O39   S38    1.44958       .     S
S38   O39    1.44958       .     S
O40   S38    1.44262       .     S
S38   O40    1.44262       .     S
O41   S38    1.44670       .     S
S38   O41    1.44670       .     S
C48   S38    1.91631       .     S
S38   C48    1.91631       .     S
Na210 O39    2.13092   1_554     S
O39   Na210  2.13092   1_556     S
C43   C42    1.49704       .     S
C42   C43    1.49704       .     S
C72   C42    1.39906       .     S
C42   C72    1.39906       .     S
C44   C43    1.39125       .     S
C43   C44    1.39125       .     S
C51   C43    1.38884       .     S
C43   C51    1.38884       .     S
H45   C44    0.95155       .     S
C44   H45    0.95155       .     S
C46   C44    1.38890       .     S
C44   C46    1.38890       .     S
H47   C46    0.95109       .     S
C46   H47    0.95109       .     S
C48   C46    1.38884       .     S
C46   C48    1.38884       .     S
C49   C48    1.39066       .     S
C48   C49    1.39066       .     S
H50   C49    0.95052       .     S
C49   H50    0.95052       .     S
C51   C49    1.39052       .     S
C49   C51    1.39052       .     S
H52   C51    0.95157       .     S
C51   H52    0.95157       .     S
O54   S53    1.44958       .     S
S53   O54    1.44958       .     S
O55   S53    1.44262       .     S
S53   O55    1.44262       .     S
O56   S53    1.44670       .     S
S53   O56    1.44670       .     S
C63   S53    1.91631       .     S
S53   C63    1.91631       .     S
Na113 O54    2.13092       .     S
O54   Na113  2.13092       .     S
C58   C57    1.49704       .     S
C57   C58    1.49704       .     S
C87   C57    1.38772       .     S
C57   C87    1.38772       .     S
C59   C58    1.39125       .     S
C58   C59    1.39125       .     S
C66   C58    1.38884       .     S
C58   C66    1.38884       .     S
H60   C59    0.95155       .     S
C59   H60    0.95155       .     S
C61   C59    1.38890       .     S
C59   C61    1.38890       .     S
H62   C61    0.95109       .     S
C61   H62    0.95109       .     S
C63   C61    1.38884       .     S
C61   C63    1.38884       .     S
C64   C63    1.39066       .     S
C63   C64    1.39066       .     S
H65   C64    0.95052       .     S
C64   H65    0.95052       .     S
C66   C64    1.39052       .     S
C64   C66    1.39052       .     S
H67   C66    0.95157       .     S
C66   H67    0.95157       .     S
O69   S68    1.44958       .     S
S68   O69    1.44958       .     S
O70   S68    1.44262       .     S
S68   O70    1.44262       .     S
O71   S68    1.44670       .     S
S68   O71    1.44670       .     S
C78   S68    1.91631       .     S
S68   C78    1.91631       .     S
Na115 O69    2.13092       .     S
O69   Na115  2.13092       .     S
C73   C72    1.49704       .     S
C72   C73    1.49704       .     S
C102  C72    1.38772       .     S
C72   C102   1.38772       .     S
C74   C73    1.39125       .     S
C73   C74    1.39125       .     S
C81   C73    1.38884       .     S
C73   C81    1.38884       .     S
H75   C74    0.95155       .     S
C74   H75    0.95155       .     S
C76   C74    1.38890       .     S
C74   C76    1.38890       .     S
H77   C76    0.95109       .     S
C76   H77    0.95109       .     S
C78   C76    1.38884       .     S
C76   C78    1.38884       .     S
C79   C78    1.39066       .     S
C78   C79    1.39066       .     S
H80   C79    0.95052       .     S
C79   H80    0.95052       .     S
C81   C79    1.39052       .     S
C79   C81    1.39052       .     S
H82   C81    0.95157       .     S
C81   H82    0.95157       .     S
O84   S83    1.44958       .     S
S83   O84    1.44958       .     S
O85   S83    1.44262       .     S
S83   O85    1.44262       .     S
O86   S83    1.44670       .     S
S83   O86    1.44670       .     S
C93   S83    1.91631       .     S
S83   C93    1.91631       .     S
Na116 O84    2.13092       .     S
O84   Na116  2.13092       .     S
C88   C87    1.49704       .     S
C87   C88    1.49704       .     S
C102  C87    1.39906       .     S
C87   C102   1.39906       .     S
C89   C88    1.39125       .     S
C88   C89    1.39125       .     S
C96   C88    1.38884       .     S
C88   C96    1.38884       .     S
H90   C89    0.95155       .     S
C89   H90    0.95155       .     S
C91   C89    1.38890       .     S
C89   C91    1.38890       .     S
H92   C91    0.95109       .     S
C91   H92    0.95109       .     S
C93   C91    1.38884       .     S
C91   C93    1.38884       .     S
C94   C93    1.39066       .     S
C93   C94    1.39066       .     S
H95   C94    0.95052       .     S
C94   H95    0.95052       .     S
C96   C94    1.39052       .     S
C94   C96    1.39052       .     S
H97   C96    0.95157       .     S
C96   H97    0.95157       .     S
O99   S98    1.44958       .     S
S98   O99    1.44958       .     S
O100  S98    1.44262       .     S
S98   O100   1.44262       .     S
O101  S98    1.44670       .     S
S98   O101   1.44670       .     S
C108  S98    1.91631       .     S
S98   C108   1.91631       .     S
Na114 O99    2.13092       .     S
O99   Na114  2.13092       .     S
C103  C102   1.49704       .     S
C102  C103   1.49704       .     S
C104  C103   1.39125       .     S
C103  C104   1.39125       .     S
C111  C103   1.38884       .     S
C103  C111   1.38884       .     S
H105  C104   0.95155       .     S
C104  H105   0.95155       .     S
C106  C104   1.38890       .     S
C104  C106   1.38890       .     S
H107  C106   0.95109       .     S
C106  H107   0.95109       .     S
C108  C106   1.38884       .     S
C106  C108   1.38884       .     S
C109  C108   1.39066       .     S
C108  C109   1.39066       .     S
H110  C109   0.95052       .     S
C109  H110   0.95052       .     S
C111  C109   1.39052       .     S
C109  C111   1.39052       .     S
H112  C111   0.95157       .     S
C111  H112   0.95157       .     S
O193  Na116  2.13092   1_655     S
Na116 O193   2.13092   1_455     S
O118  S117   1.44958       .     S
S117  O118   1.44958       .     S
O119  S117   1.44262       .     S
S117  O119   1.44262       .     S
O120  S117   1.44670       .     S
S117  O120   1.44670       .     S
C127  S117   1.91631       .     S
S117  C127   1.91631       .     S
Na210 O118   2.13092       .     S
O118  Na210  2.13092       .     S
C122  C121   1.49704       .     S
C121  C122   1.49704       .     S
C136  C121   1.38772       .     S
C121  C136   1.38772       .     S
C151  C121   1.39906       .     S
C121  C151   1.39906       .     S
C123  C122   1.39125       .     S
C122  C123   1.39125       .     S
C130  C122   1.38884       .     S
C122  C130   1.38884       .     S
H124  C123   0.95155       .     S
C123  H124   0.95155       .     S
C125  C123   1.38890       .     S
C123  C125   1.38890       .     S
H126  C125   0.95109       .     S
C125  H126   0.95109       .     S
C127  C125   1.38884       .     S
C125  C127   1.38884       .     S
C128  C127   1.39066       .     S
C127  C128   1.39066       .     S
H129  C128   0.95052       .     S
C128  H129   0.95052       .     S
C130  C128   1.39052       .     S
C128  C130   1.39052       .     S
H131  C130   0.95157       .     S
C130  H131   0.95157       .     S
O133  S132   1.44958       .     S
S132  O133   1.44958       .     S
O134  S132   1.44262       .     S
S132  O134   1.44262       .     S
O135  S132   1.44670       .     S
S132  O135   1.44670       .     S
C142  S132   1.91631       .     S
S132  C142   1.91631       .     S
Na213 O133   2.13092       .     S
O133  Na213  2.13092       .     S
C137  C136   1.49704       .     S
C136  C137   1.49704       .     S
C166  C136   1.39906       .     S
C136  C166   1.39906       .     S
C138  C137   1.39125       .     S
C137  C138   1.39125       .     S
C145  C137   1.38884       .     S
C137  C145   1.38884       .     S
H139  C138   0.95155       .     S
C138  H139   0.95155       .     S
C140  C138   1.38890       .     S
C138  C140   1.38890       .     S
H141  C140   0.95109       .     S
C140  H141   0.95109       .     S
C142  C140   1.38884       .     S
C140  C142   1.38884       .     S
C143  C142   1.39066       .     S
C142  C143   1.39066       .     S
H144  C143   0.95052       .     S
C143  H144   0.95052       .     S
C145  C143   1.39052       .     S
C143  C145   1.39052       .     S
H146  C145   0.95157       .     S
C145  H146   0.95157       .     S
O148  S147   1.44958       .     S
S147  O148   1.44958       .     S
O149  S147   1.44262       .     S
S147  O149   1.44262       .     S
O150  S147   1.44670       .     S
S147  O150   1.44670       .     S
C157  S147   1.91631       .     S
S147  C157   1.91631       .     S
Na209 O148   2.13092       .     S
O148  Na209  2.13092       .     S
C152  C151   1.49704       .     S
C151  C152   1.49704       .     S
C181  C151   1.38772       .     S
C151  C181   1.38772       .     S
C153  C152   1.39125       .     S
C152  C153   1.39125       .     S
C160  C152   1.38884       .     S
C152  C160   1.38884       .     S
H154  C153   0.95155       .     S
C153  H154   0.95155       .     S
C155  C153   1.38890       .     S
C153  C155   1.38890       .     S
H156  C155   0.95109       .     S
C155  H156   0.95109       .     S
C157  C155   1.38884       .     S
C155  C157   1.38884       .     S
C158  C157   1.39066       .     S
C157  C158   1.39066       .     S
H159  C158   0.95052       .     S
C158  H159   0.95052       .     S
C160  C158   1.39052       .     S
C158  C160   1.39052       .     S
H161  C160   0.95157       .     S
C160  H161   0.95157       .     S
O163  S162   1.44958       .     S
S162  O163   1.44958       .     S
O164  S162   1.44262       .     S
S162  O164   1.44262       .     S
O165  S162   1.44670       .     S
S162  O165   1.44670       .     S
C172  S162   1.91631       .     S
S162  C172   1.91631       .     S
Na207 O163   2.13092   1_455     S
O163  Na207  2.13092   1_655     S
C167  C166   1.49704       .     S
C166  C167   1.49704       .     S
C196  C166   1.38772       .     S
C166  C196   1.38772       .     S
C168  C167   1.39125       .     S
C167  C168   1.39125       .     S
C175  C167   1.38884       .     S
C167  C175   1.38884       .     S
H169  C168   0.95155       .     S
C168  H169   0.95155       .     S
C170  C168   1.38890       .     S
C168  C170   1.38890       .     S
H171  C170   0.95109       .     S
C170  H171   0.95109       .     S
C172  C170   1.38884       .     S
C170  C172   1.38884       .     S
C173  C172   1.39066       .     S
C172  C173   1.39066       .     S
H174  C173   0.95052       .     S
C173  H174   0.95052       .     S
C175  C173   1.39052       .     S
C173  C175   1.39052       .     S
H176  C175   0.95157       .     S
C175  H176   0.95157       .     S
O178  S177   1.44958       .     S
S177  O178   1.44958       .     S
O179  S177   1.44262       .     S
S177  O179   1.44262       .     S
O180  S177   1.44670       .     S
S177  O180   1.44670       .     S
C187  S177   1.91631       .     S
S177  C187   1.91631       .     S
Na208 O178   2.13092       .     S
O178  Na208  2.13092       .     S
C182  C181   1.49704       .     S
C181  C182   1.49704       .     S
C196  C181   1.39906       .     S
C181  C196   1.39906       .     S
C183  C182   1.39125       .     S
C182  C183   1.39125       .     S
C190  C182   1.38884       .     S
C182  C190   1.38884       .     S
H184  C183   0.95155       .     S
C183  H184   0.95155       .     S
C185  C183   1.38890       .     S
C183  C185   1.38890       .     S
H186  C185   0.95109       .     S
C185  H186   0.95109       .     S
C187  C185   1.38884       .     S
C185  C187   1.38884       .     S
C188  C187   1.39066       .     S
C187  C188   1.39066       .     S
H189  C188   0.95052       .     S
C188  H189   0.95052       .     S
C190  C188   1.39052       .     S
C188  C190   1.39052       .     S
H191  C190   0.95157       .     S
C190  H191   0.95157       .     S
O193  S192   1.44958       .     S
S192  O193   1.44958       .     S
O194  S192   1.44262       .     S
S192  O194   1.44262       .     S
O195  S192   1.44670       .     S
S192  O195   1.44670       .     S
C202  S192   1.91631       .     S
S192  C202   1.91631       .     S
C197  C196   1.49704       .     S
C196  C197   1.49704       .     S
C198  C197   1.39125       .     S
C197  C198   1.39125       .     S
C205  C197   1.38884       .     S
C197  C205   1.38884       .     S
H199  C198   0.95155       .     S
C198  H199   0.95155       .     S
C200  C198   1.38890       .     S
C198  C200   1.38890       .     S
H201  C200   0.95109       .     S
C200  H201   0.95109       .     S
C202  C200   1.38884       .     S
C200  C202   1.38884       .     S
C203  C202   1.39066       .     S
C202  C203   1.39066       .     S
H204  C203   0.95052       .     S
C203  H204   0.95052       .     S
C205  C203   1.39052       .     S
C203  C205   1.39052       .     S
H206  C205   0.95157       .     S
C205  H206   0.95157       .     S
O211  Na210  2.13092       .     S
Na210 O211   2.13092       .     S
O212  Na210  2.13092   1_556     S
Na210 O212   2.13092   1_554     S
O214  Na213  2.13092       .     S
Na213 O214   2.13092       .     S
O215  Na213  2.13092   1_556     S
Na213 O215   2.13092   1_554     S
O216  Na213  2.13092   1_556     S
Na213 O216   2.13092   1_554     S
O218  Na217  2.13092       .     S
Na217 O218   2.13092       .     S
O219  Na217  2.13092       .     S
Na217 O219   2.13092       .     S
O220  Na217  2.13092   1_556     S
Na217 O220   2.13092   1_554     S
I222  Bi221  3.07286       .     S
Bi221 I222   3.07286       .     S
I223  Bi221  3.07286       .     S
Bi221 I223   3.07286       .     S
I225  Bi224  3.07286       .     S
Bi224 I225   3.07286       .     S
I226  Bi224  3.07286       .     S
Bi224 I226   3.07286       .     S
I228  Bi227  3.07287       .     S
Bi227 I228   3.07287       .     S
I229  Bi227  3.07286       .     S
Bi227 I229   3.07286       .     S
Bi231 I230   2.98031       .     S
I230  Bi231  2.98031       .     S
Bi238 I230   2.98031       .     S
I230  Bi238  2.98031       .     S
Bi240 I230   2.98031       .     S
I230  Bi240  2.98031       .     S
I232  Bi231  2.88516       .     S
Bi231 I232   2.88516       .     S
I233  Bi231  2.98031       .     S
Bi231 I233   2.98031       .     S
I236  Bi231  2.98031       .     S
Bi231 I236   2.98031       .     S
Bi234 I233   2.98031       .     S
I233  Bi234  2.98031       .     S
Bi240 I233   2.98031       .     S
I233  Bi240  2.98031       .     S
I235  Bi234  2.88516       .     S
Bi234 I235   2.88516       .     S
I236  Bi234  2.98031       .     S
Bi234 I236   2.98031       .     S
I237  Bi234  2.98031       .     S
Bi234 I237   2.98031       .     S
Bi238 I236   2.98031       .     S
I236  Bi238  2.98031       .     S
Bi238 I237   2.98031       .     S
I237  Bi238  2.98031       .     S
Bi240 I237   2.98031       .     S
I237  Bi240  2.98031       .     S
I239  Bi238  2.88516       .     S
Bi238 I239   2.88516       .     S
I241  Bi240  2.88516       .     S
Bi240 I241   2.88516       .     S
