data_I
_chemical_name_common  '/data/user2/wty/HOF/MOFDiff/mofdiff/data/test/5-14'
_cell_length_a 26.74550
_cell_length_b 26.74550
_cell_length_c 26.74550
_cell_angle_alpha 90.00000
_cell_angle_beta  90.00000
_cell_angle_gamma 90.00000
_space_group_name_H-M_alt      'P 1'


loop_
_space_group_symop_operation_xyz
  'x, y, z' 

loop_
_atom_site_label
_atom_site_fract_x
_atom_site_fract_y
_atom_site_fract_z
_atom_site_type_symbol
H0      0.9178   0.3719   0.1219     H
N1      0.8868   0.3649   0.1132     N
H2      0.8733   0.3796    0.087     H
H3       0.913   0.3796   0.1267     H
H4      0.8781   0.3719   0.0822     H
C5      0.8572   0.3282   0.1428     C
N6      0.8198   0.3088   0.1201     N
H7      0.8079   0.2797     0.13     H
H8      0.8061   0.3244   0.0946     H
N9      0.8799   0.3088   0.1802     N
H10       0.87   0.2797   0.1921     H
H11     0.9054   0.3244   0.1939     H
N12     0.7823   0.2177   0.2177     N
O13     0.7544   0.2456    0.186     O
O14      0.814   0.2456   0.2456     O
O15     0.7544    0.186   0.2456     O
Pb16   0.55336  0.44664  0.44664    Pb
I17     0.6136   0.3864   0.3864     I
I18     0.4384   0.4384   0.4384     I
I19     0.5616   0.4384   0.5616     I
I20     0.4384   0.5616   0.5616     I
Pb21   0.55336  0.55336  0.55336    Pb
I22     0.5616   0.5616   0.4384     I
I23     0.6136   0.6136   0.6136     I
Pb24   0.44664  0.44664  0.55336    Pb
I25     0.3864   0.3864   0.6136     I
Pb26   0.44664  0.55336  0.44664    Pb
I27     0.3864   0.6136   0.3864     I
O28     0.7106   0.5234   0.9326     O
Na29      0.75      0.5      0.0    Na
O30     0.7894   0.5674   0.0234     O
O31     0.7894   0.4326   0.9766     O
Na32       0.5     0.25      0.0    Na
S33     0.4982   0.3135   0.1087     S
O34     0.5234   0.2894   0.0674     O
O35     0.4612   0.2797   0.1284     O
O36     0.4821   0.3651   0.1086     O
C37     0.6596   0.3041   0.2673     C
C38     0.6182   0.3078   0.2298     C
C39     0.5744   0.3349    0.237     C
H40     0.5695    0.353   0.2671     H
C41     0.5378   0.3355   0.2001     C
H42     0.5079   0.3541    0.205     H
C43      0.545   0.3091   0.1559     C
C44     0.5888   0.2819   0.1487     C
H45     0.5937   0.2638   0.1185     H
C46     0.6253   0.2813   0.1856     C
H47     0.6552   0.2628   0.1807     H
S48     0.6865   0.5018   0.1087     S
O49     0.7106   0.4766   0.0674     O
O50     0.7203   0.5388   0.1284     O
O51     0.6349   0.5179   0.1086     O
C52     0.6959   0.3404   0.2673     C
C53     0.6922   0.3818   0.2298     C
C54     0.6651   0.4256    0.237     C
H55      0.647   0.4305   0.2671     H
C56     0.6645   0.4622   0.2001     C
H57     0.6459   0.4921    0.205     H
C58     0.6909    0.455   0.1559     C
C59     0.7181   0.4112   0.1487     C
H60     0.7362   0.4063   0.1185     H
C61     0.7187   0.3747   0.1856     C
H62     0.7372   0.3448   0.1807     H
S63     0.4982   0.1087   0.3135     S
O64     0.5234   0.0674   0.2894     O
O65     0.4612   0.1284   0.2797     O
O66     0.4821   0.1086   0.3651     O
C67     0.6596   0.2673   0.3041     C
C68     0.6182   0.2298   0.3078     C
C69     0.5744    0.237   0.3349     C
H70     0.5695   0.2671    0.353     H
C71     0.5378   0.2001   0.3355     C
H72     0.5079    0.205   0.3541     H
C73      0.545   0.1559   0.3091     C
C74     0.5888   0.1487   0.2819     C
H75     0.5937   0.1185   0.2638     H
C76     0.6253   0.1856   0.2813     C
H77     0.6552   0.1807   0.2628     H
S78     0.8913   0.5018   0.3135     S
O79     0.9326   0.4766   0.2894     O
O80     0.8716   0.5388   0.2797     O
O81     0.8914   0.5179   0.3651     O
C82     0.7327   0.3404   0.3041     C
C83     0.7702   0.3818   0.3078     C
C84      0.763   0.4256   0.3349     C
H85     0.7329   0.4305    0.353     H
C86     0.7999   0.4622   0.3355     C
H87      0.795   0.4921   0.3541     H
C88     0.8441    0.455   0.3091     C
C89     0.8513   0.4112   0.2819     C
H90     0.8815   0.4063   0.2638     H
C91     0.8144   0.3747   0.2813     C
H92     0.8193   0.3448   0.2628     H
S93     0.6865   0.1087   0.5018     S
O94     0.7106   0.0674   0.4766     O
O95     0.7203   0.1284   0.5388     O
O96     0.6349   0.1086   0.5179     O
C97     0.6959   0.2673   0.3404     C
C98     0.6922   0.2298   0.3818     C
C99     0.6651    0.237   0.4256     C
H100     0.647   0.2671   0.4305     H
C101    0.6645   0.2001   0.4622     C
H102    0.6459    0.205   0.4921     H
C103    0.6909   0.1559    0.455     C
C104    0.7181   0.1487   0.4112     C
H105    0.7362   0.1185   0.4063     H
C106    0.7187   0.1856   0.3747     C
H107    0.7372   0.1807   0.3448     H
S108    0.8913   0.3135   0.5018     S
O109    0.9326   0.2894   0.4766     O
O110    0.8716   0.2797   0.5388     O
O111    0.8914   0.3651   0.5179     O
C112    0.7327   0.3041   0.3404     C
C113    0.7702   0.3078   0.3818     C
C114     0.763   0.3349   0.4256     C
H115    0.7329    0.353   0.4305     H
C116    0.7999   0.3355   0.4622     C
H117     0.795   0.3541   0.4921     H
C118    0.8441   0.3091    0.455     C
C119    0.8513   0.2819   0.4112     C
H120    0.8815   0.2638   0.4063     H
C121    0.8144   0.2813   0.3747     C
H122    0.8193   0.2628   0.3448     H
Na123      0.0      0.5     0.25    Na
Na124     0.75      0.0      0.5    Na
Na125      0.5      0.0     0.25    Na
Na126      0.0     0.25      0.5    Na
S127    0.3135   0.5018   0.8913     S
O128    0.2894   0.4766   0.9326     O
O129    0.2797   0.5388   0.8716     O
O130    0.3651   0.5179   0.8914     O
C131    0.3041   0.3404   0.7327     C
C132    0.3078   0.3818   0.7702     C
C133    0.3349   0.4256    0.763     C
H134     0.353   0.4305   0.7329     H
C135    0.3355   0.4622   0.7999     C
H136    0.3541   0.4921    0.795     H
C137    0.3091    0.455   0.8441     C
C138    0.2819   0.4112   0.8513     C
H139    0.2638   0.4063   0.8815     H
C140    0.2813   0.3747   0.8144     C
H141    0.2628   0.3448   0.8193     H
S142    0.5018   0.3135   0.8913     S
O143    0.4766   0.2894   0.9326     O
O144    0.5388   0.2797   0.8716     O
O145    0.5179   0.3651   0.8914     O
C146    0.3404   0.3041   0.7327     C
C147    0.3818   0.3078   0.7702     C
C148    0.4256   0.3349    0.763     C
H149    0.4305    0.353   0.7329     H
C150    0.4622   0.3355   0.7999     C
H151    0.4921   0.3541    0.795     H
C152     0.455   0.3091   0.8441     C
C153    0.4112   0.2819   0.8513     C
H154    0.4063   0.2638   0.8815     H
C155    0.3747   0.2813   0.8144     C
H156    0.3448   0.2628   0.8193     H
S157    0.1087   0.5018   0.6865     S
O158    0.0674   0.4766   0.7106     O
O159    0.1284   0.5388   0.7203     O
O160    0.1086   0.5179   0.6349     O
C161    0.2673   0.3404   0.6959     C
C162    0.2298   0.3818   0.6922     C
C163     0.237   0.4256   0.6651     C
H164    0.2671   0.4305    0.647     H
C165    0.2001   0.4622   0.6645     C
H166     0.205   0.4921   0.6459     H
C167    0.1559    0.455   0.6909     C
C168    0.1487   0.4112   0.7181     C
H169    0.1185   0.4063   0.7362     H
C170    0.1856   0.3747   0.7187     C
H171    0.1807   0.3448   0.7372     H
S172    0.5018   0.1087   0.6865     S
O173    0.4766   0.0674   0.7106     O
O174    0.5388   0.1284   0.7203     O
O175    0.5179   0.1086   0.6349     O
C176    0.3404   0.2673   0.6959     C
C177    0.3818   0.2298   0.6922     C
C178    0.4256    0.237   0.6651     C
H179    0.4305   0.2671    0.647     H
C180    0.4622   0.2001   0.6645     C
H181    0.4921    0.205   0.6459     H
C182     0.455   0.1559   0.6909     C
C183    0.4112   0.1487   0.7181     C
H184    0.4063   0.1185   0.7362     H
C185    0.3747   0.1856   0.7187     C
H186    0.3448   0.1807   0.7372     H
S187    0.1087   0.3135   0.4982     S
O188    0.0674   0.2894   0.5234     O
O189    0.1284   0.2797   0.4612     O
O190    0.1086   0.3651   0.4821     O
C191    0.2673   0.3041   0.6596     C
C192    0.2298   0.3078   0.6182     C
C193     0.237   0.3349   0.5744     C
H194    0.2671    0.353   0.5695     H
C195    0.2001   0.3355   0.5378     C
H196     0.205   0.3541   0.5079     H
C197    0.1559   0.3091    0.545     C
C198    0.1487   0.2819   0.5888     C
H199    0.1185   0.2638   0.5937     H
C200    0.1856   0.2813   0.6253     C
H201    0.1807   0.2628   0.6552     H
S202    0.3135   0.1087   0.4982     S
O203    0.2894   0.0674   0.5234     O
O204    0.2797   0.1284   0.4612     O
O205    0.3651   0.1086   0.4821     O
C206    0.3041   0.2673   0.6596     C
C207    0.3078   0.2298   0.6182     C
C208    0.3349    0.237   0.5744     C
H209     0.353   0.2671   0.5695     H
C210    0.3355   0.2001   0.5378     C
H211    0.3541    0.205   0.5079     H
C212    0.3091   0.1559    0.545     C
C213    0.2819   0.1487   0.5888     C
H214    0.2638   0.1185   0.5937     H
C215    0.2813   0.1856   0.6253     C
H216    0.2628   0.1807   0.6552     H
Na217      0.0      0.5     0.75    Na
Na218     0.25      0.0      0.5    Na
Na219      0.5      0.0     0.75    Na
Na220     0.25      0.5      0.0    Na
O221    0.2894   0.5234   0.0674     O
O222    0.2106   0.5674   0.9766     O
O223    0.2106   0.4326   0.0234     O
O224    0.5674   0.2106   0.9766     O
O225    0.4326   0.2106   0.0234     O
loop_
_geom_bond_atom_site_label_1
_geom_bond_atom_site_label_2
_geom_bond_distance
_geom_bond_site_symmetry_2
_ccdc_geom_bond_type
H7    O13    2.26329       .     S
O13   H7     2.26329       .     S
H10   O14    2.26329       .     S
O14   H10    2.26329       .     S
H0    N1     0.88126       .     S
N1    H0     0.88126       .     S
H0    H3     0.27454       .     S
H3    H0     0.27454       .     S
N1    H2     0.88089       .     S
H2    N1     0.88089       .     S
N1    H3     0.88089       .     S
H3    N1     0.88089       .     S
N1    H4     0.88126       .     S
H4    N1     0.88126       .     S
N1    C5     1.48893       .     S
C5    N1     1.48893       .     S
H2    H4     0.27454       .     S
H4    H2     0.27454       .     S
C5    N6     1.27999       .     S
N6    C5     1.27999       .     S
C5    N9     1.27999       .     S
N9    C5     1.27999       .     S
N6    H7     0.88156       .     S
H7    N6     0.88156       .     S
N6    H8     0.87948       .     S
H8    N6     0.87948       .     S
N9    H10    0.88156       .     S
H10   N9     0.88156       .     S
N9    H11    0.87948       .     S
H11   N9     0.87948       .     S
N12   O13    1.35368       .     S
O13   N12    1.35368       .     S
N12   O14    1.35368       .     S
O14   N12    1.35368       .     S
N12   O15    1.35368       .     S
O15   N12    1.35368       .     S
Pb16  I17    2.79059       .     S
I17   Pb16   2.79059       .     S
Pb16  I18    3.09042       .     S
I18   Pb16   3.09042       .     S
Pb16  I19    3.09042       .     S
I19   Pb16   3.09042       .     S
Pb16  I22    3.09042       .     S
I22   Pb16   3.09042       .     S
I18   Pb24   3.09042       .     S
Pb24  I18    3.09042       .     S
I18   Pb26   3.09042       .     S
Pb26  I18    3.09042       .     S
I19   Pb21   3.09042       .     S
Pb21  I19    3.09042       .     S
I19   Pb24   3.09042       .     S
Pb24  I19    3.09042       .     S
I20   Pb21   3.09042       .     S
Pb21  I20    3.09042       .     S
I20   Pb24   3.09042       .     S
Pb24  I20    3.09042       .     S
I20   Pb26   3.09042       .     S
Pb26  I20    3.09042       .     S
Pb21  I22    3.09042       .     S
I22   Pb21   3.09042       .     S
Pb21  I23    2.79059       .     S
I23   Pb21   2.79059       .     S
I22   Pb26   3.09042       .     S
Pb26  I22    3.09042       .     S
Pb24  I25    2.79059       .     S
I25   Pb24   2.79059       .     S
Pb26  I27    2.79059       .     S
I27   Pb26   2.79059       .     S
O28   Na29   2.17983   1_556     S
Na29  O28    2.17983   1_554     S
Na29  O30    2.17983       .     S
O30   Na29   2.17983       .     S
Na29  O31    2.17983   1_554     S
O31   Na29   2.17983   1_556     S
Na29  O49    2.17983       .     S
O49   Na29   2.17983       .     S
Na32  O34    2.17983       .     S
O34   Na32   2.17983       .     S
Na32  O143   2.17983   1_554     S
O143  Na32   2.17983   1_556     S
Na32  O224   2.17983   1_554     S
O224  Na32   2.17983   1_556     S
Na32  O225   2.17983       .     S
O225  Na32   2.17983       .     S
S33   O34    1.44563       .     S
O34   S33    1.44563       .     S
S33   O35    1.44017       .     S
O35   S33    1.44017       .     S
S33   O36    1.44569       .     S
O36   S33    1.44569       .     S
S33   C43    1.78163       .     S
C43   S33    1.78163       .     S
C37   C38    1.49725       .     S
C38   C37    1.49725       .     S
C37   C52    1.37301       .     S
C52   C37    1.37301       .     S
C37   C67    1.39192       .     S
C67   C37    1.39192       .     S
C38   C39    1.39094       .     S
C39   C38    1.39094       .     S
C38   C46    1.39136       .     S
C46   C38    1.39136       .     S
C39   H40    0.94848       .     S
H40   C39    0.94848       .     S
C39   C41    1.39013       .     S
C41   C39    1.39013       .     S
C41   H42    0.95087       .     S
H42   C41    0.95087       .     S
C41   C43    1.39037       .     S
C43   C41    1.39037       .     S
C43   C44    1.39234       .     S
C44   C43    1.39234       .     S
C44   H45    0.95075       .     S
H45   C44    0.95075       .     S
C44   C46    1.38825       .     S
C46   C44    1.38825       .     S
C46   H47    0.94947       .     S
H47   C46    0.94947       .     S
S48   O49    1.44563       .     S
O49   S48    1.44563       .     S
S48   O50    1.44017       .     S
O50   S48    1.44017       .     S
S48   O51    1.44569       .     S
O51   S48    1.44569       .     S
S48   C58    1.78163       .     S
C58   S48    1.78163       .     S
C52   C53    1.49725       .     S
C53   C52    1.49725       .     S
C52   C82    1.39192       .     S
C82   C52    1.39192       .     S
C53   C54    1.39094       .     S
C54   C53    1.39094       .     S
C53   C61    1.39136       .     S
C61   C53    1.39136       .     S
C54   H55    0.94848       .     S
H55   C54    0.94848       .     S
C54   C56    1.39013       .     S
C56   C54    1.39013       .     S
C56   H57    0.95087       .     S
H57   C56    0.95087       .     S
C56   C58    1.39037       .     S
C58   C56    1.39037       .     S
C58   C59    1.39234       .     S
C59   C58    1.39234       .     S
C59   H60    0.95075       .     S
H60   C59    0.95075       .     S
C59   C61    1.38825       .     S
C61   C59    1.38825       .     S
C61   H62    0.94947       .     S
H62   C61    0.94947       .     S
S63   O64    1.44563       .     S
O64   S63    1.44563       .     S
S63   O65    1.44017       .     S
O65   S63    1.44017       .     S
S63   O66    1.44569       .     S
O66   S63    1.44569       .     S
S63   C73    1.78163       .     S
C73   S63    1.78163       .     S
O64   Na125  2.17983       .     S
Na125 O64    2.17983       .     S
C67   C68    1.49725       .     S
C68   C67    1.49725       .     S
C67   C97    1.37301       .     S
C97   C67    1.37301       .     S
C68   C69    1.39094       .     S
C69   C68    1.39094       .     S
C68   C76    1.39136       .     S
C76   C68    1.39136       .     S
C69   H70    0.94848       .     S
H70   C69    0.94848       .     S
C69   C71    1.39013       .     S
C71   C69    1.39013       .     S
C71   H72    0.95087       .     S
H72   C71    0.95087       .     S
C71   C73    1.39037       .     S
C73   C71    1.39037       .     S
C73   C74    1.39234       .     S
C74   C73    1.39234       .     S
C74   H75    0.95075       .     S
H75   C74    0.95075       .     S
C74   C76    1.38825       .     S
C76   C74    1.38825       .     S
C76   H77    0.94947       .     S
H77   C76    0.94947       .     S
S78   O79    1.44563       .     S
O79   S78    1.44563       .     S
S78   O80    1.44017       .     S
O80   S78    1.44017       .     S
S78   O81    1.44569       .     S
O81   S78    1.44569       .     S
S78   C88    1.78163       .     S
C88   S78    1.78163       .     S
O79   Na123  2.17983   1_655     S
Na123 O79    2.17983   1_455     S
C82   C83    1.49725       .     S
C83   C82    1.49725       .     S
C82   C112   1.37301       .     S
C112  C82    1.37301       .     S
C83   C84    1.39094       .     S
C84   C83    1.39094       .     S
C83   C91    1.39136       .     S
C91   C83    1.39136       .     S
C84   H85    0.94848       .     S
H85   C84    0.94848       .     S
C84   C86    1.39013       .     S
C86   C84    1.39013       .     S
C86   H87    0.95087       .     S
H87   C86    0.95087       .     S
C86   C88    1.39036       .     S
C88   C86    1.39036       .     S
C88   C89    1.39234       .     S
C89   C88    1.39234       .     S
C89   H90    0.95075       .     S
H90   C89    0.95075       .     S
C89   C91    1.38825       .     S
C91   C89    1.38825       .     S
C91   H92    0.94947       .     S
H92   C91    0.94947       .     S
S93   O94    1.44563       .     S
O94   S93    1.44563       .     S
S93   O95    1.44017       .     S
O95   S93    1.44017       .     S
S93   O96    1.44569       .     S
O96   S93    1.44569       .     S
S93   C103   1.78163       .     S
C103  S93    1.78163       .     S
O94   Na124  2.17983       .     S
Na124 O94    2.17983       .     S
C97   C98    1.49725       .     S
C98   C97    1.49725       .     S
C97   C112   1.39192       .     S
C112  C97    1.39192       .     S
C98   C99    1.39094       .     S
C99   C98    1.39094       .     S
C98   C106   1.39136       .     S
C106  C98    1.39136       .     S
C99   H100   0.94848       .     S
H100  C99    0.94848       .     S
C99   C101   1.39013       .     S
C101  C99    1.39013       .     S
C101  H102   0.95087       .     S
H102  C101   0.95087       .     S
C101  C103   1.39037       .     S
C103  C101   1.39037       .     S
C103  C104   1.39234       .     S
C104  C103   1.39234       .     S
C104  H105   0.95075       .     S
H105  C104   0.95075       .     S
C104  C106   1.38825       .     S
C106  C104   1.38825       .     S
C106  H107   0.94947       .     S
H107  C106   0.94947       .     S
S108  O109   1.44563       .     S
O109  S108   1.44563       .     S
S108  O110   1.44017       .     S
O110  S108   1.44017       .     S
S108  O111   1.44569       .     S
O111  S108   1.44569       .     S
S108  C118   1.78163       .     S
C118  S108   1.78163       .     S
O109  Na126  2.17983   1_655     S
Na126 O109   2.17983   1_455     S
C112  C113   1.49725       .     S
C113  C112   1.49725       .     S
C113  C114   1.39094       .     S
C114  C113   1.39094       .     S
C113  C121   1.39136       .     S
C121  C113   1.39136       .     S
C114  H115   0.94848       .     S
H115  C114   0.94848       .     S
C114  C116   1.39013       .     S
C116  C114   1.39013       .     S
C116  H117   0.95087       .     S
H117  C116   0.95087       .     S
C116  C118   1.39036       .     S
C118  C116   1.39036       .     S
C118  C119   1.39234       .     S
C119  C118   1.39234       .     S
C119  H120   0.95075       .     S
H120  C119   0.95075       .     S
C119  C121   1.38825       .     S
C121  C119   1.38825       .     S
C121  H122   0.94947       .     S
H122  C121   0.94947       .     S
Na126 O188   2.17983       .     S
O188  Na126  2.17983       .     S
S127  O128   1.44563       .     S
O128  S127   1.44563       .     S
S127  O129   1.44017       .     S
O129  S127   1.44017       .     S
S127  O130   1.44569       .     S
O130  S127   1.44569       .     S
S127  C137   1.78163       .     S
C137  S127   1.78163       .     S
O128  Na220  2.17983   1_556     S
Na220 O128   2.17983   1_554     S
C131  C132   1.49725       .     S
C132  C131   1.49725       .     S
C131  C146   1.37301       .     S
C146  C131   1.37301       .     S
C131  C161   1.39192       .     S
C161  C131   1.39192       .     S
C132  C133   1.39094       .     S
C133  C132   1.39094       .     S
C132  C140   1.39136       .     S
C140  C132   1.39136       .     S
C133  H134   0.94848       .     S
H134  C133   0.94848       .     S
C133  C135   1.39013       .     S
C135  C133   1.39013       .     S
C135  H136   0.95087       .     S
H136  C135   0.95087       .     S
C135  C137   1.39037       .     S
C137  C135   1.39037       .     S
C137  C138   1.39234       .     S
C138  C137   1.39234       .     S
C138  H139   0.95075       .     S
H139  C138   0.95075       .     S
C138  C140   1.38825       .     S
C140  C138   1.38825       .     S
C140  H141   0.94947       .     S
H141  C140   0.94947       .     S
S142  O143   1.44563       .     S
O143  S142   1.44563       .     S
S142  O144   1.44017       .     S
O144  S142   1.44017       .     S
S142  O145   1.44569       .     S
O145  S142   1.44569       .     S
S142  C152   1.78163       .     S
C152  S142   1.78163       .     S
C146  C147   1.49725       .     S
C147  C146   1.49725       .     S
C146  C176   1.39192       .     S
C176  C146   1.39192       .     S
C147  C148   1.39094       .     S
C148  C147   1.39094       .     S
C147  C155   1.39136       .     S
C155  C147   1.39136       .     S
C148  H149   0.94848       .     S
H149  C148   0.94848       .     S
C148  C150   1.39013       .     S
C150  C148   1.39013       .     S
C150  H151   0.95087       .     S
H151  C150   0.95087       .     S
C150  C152   1.39037       .     S
C152  C150   1.39037       .     S
C152  C153   1.39234       .     S
C153  C152   1.39234       .     S
C153  H154   0.95075       .     S
H154  C153   0.95075       .     S
C153  C155   1.38825       .     S
C155  C153   1.38825       .     S
C155  H156   0.94947       .     S
H156  C155   0.94947       .     S
S157  O158   1.44563       .     S
O158  S157   1.44563       .     S
S157  O159   1.44017       .     S
O159  S157   1.44017       .     S
S157  O160   1.44569       .     S
O160  S157   1.44569       .     S
S157  C167   1.78163       .     S
C167  S157   1.78163       .     S
O158  Na217  2.17983       .     S
Na217 O158   2.17983       .     S
C161  C162   1.49725       .     S
C162  C161   1.49725       .     S
C161  C191   1.37301       .     S
C191  C161   1.37301       .     S
C162  C163   1.39094       .     S
C163  C162   1.39094       .     S
C162  C170   1.39136       .     S
C170  C162   1.39136       .     S
C163  H164   0.94848       .     S
H164  C163   0.94848       .     S
C163  C165   1.39013       .     S
C165  C163   1.39013       .     S
C165  H166   0.95087       .     S
H166  C165   0.95087       .     S
C165  C167   1.39036       .     S
C167  C165   1.39036       .     S
C167  C168   1.39234       .     S
C168  C167   1.39234       .     S
C168  H169   0.95075       .     S
H169  C168   0.95075       .     S
C168  C170   1.38825       .     S
C170  C168   1.38825       .     S
C170  H171   0.94947       .     S
H171  C170   0.94947       .     S
S172  O173   1.44563       .     S
O173  S172   1.44563       .     S
S172  O174   1.44017       .     S
O174  S172   1.44017       .     S
S172  O175   1.44569       .     S
O175  S172   1.44569       .     S
S172  C182   1.78163       .     S
C182  S172   1.78163       .     S
O173  Na219  2.17983       .     S
Na219 O173   2.17983       .     S
C176  C177   1.49725       .     S
C177  C176   1.49725       .     S
C176  C206   1.37301       .     S
C206  C176   1.37301       .     S
C177  C178   1.39094       .     S
C178  C177   1.39094       .     S
C177  C185   1.39136       .     S
C185  C177   1.39136       .     S
C178  H179   0.94848       .     S
H179  C178   0.94848       .     S
C178  C180   1.39013       .     S
C180  C178   1.39013       .     S
C180  H181   0.95087       .     S
H181  C180   0.95087       .     S
C180  C182   1.39036       .     S
C182  C180   1.39036       .     S
C182  C183   1.39234       .     S
C183  C182   1.39234       .     S
C183  H184   0.95075       .     S
H184  C183   0.95075       .     S
C183  C185   1.38825       .     S
C185  C183   1.38825       .     S
C185  H186   0.94947       .     S
H186  C185   0.94947       .     S
S187  O188   1.44563       .     S
O188  S187   1.44563       .     S
S187  O189   1.44017       .     S
O189  S187   1.44017       .     S
S187  O190   1.44569       .     S
O190  S187   1.44569       .     S
S187  C197   1.78163       .     S
C197  S187   1.78163       .     S
C191  C192   1.49725       .     S
C192  C191   1.49725       .     S
C191  C206   1.39192       .     S
C206  C191   1.39192       .     S
C192  C193   1.39094       .     S
C193  C192   1.39094       .     S
C192  C200   1.39136       .     S
C200  C192   1.39136       .     S
C193  H194   0.94848       .     S
H194  C193   0.94848       .     S
C193  C195   1.39013       .     S
C195  C193   1.39013       .     S
C195  H196   0.95087       .     S
H196  C195   0.95087       .     S
C195  C197   1.39037       .     S
C197  C195   1.39037       .     S
C197  C198   1.39234       .     S
C198  C197   1.39234       .     S
C198  H199   0.95075       .     S
H199  C198   0.95075       .     S
C198  C200   1.38825       .     S
C200  C198   1.38825       .     S
C200  H201   0.94947       .     S
H201  C200   0.94947       .     S
S202  O203   1.44563       .     S
O203  S202   1.44563       .     S
S202  O204   1.44017       .     S
O204  S202   1.44017       .     S
S202  O205   1.44569       .     S
O205  S202   1.44569       .     S
S202  C212   1.78163       .     S
C212  S202   1.78163       .     S
O203  Na218  2.17983       .     S
Na218 O203   2.17983       .     S
C206  C207   1.49725       .     S
C207  C206   1.49725       .     S
C207  C208   1.39094       .     S
C208  C207   1.39094       .     S
C207  C215   1.39136       .     S
C215  C207   1.39136       .     S
C208  H209   0.94848       .     S
H209  C208   0.94848       .     S
C208  C210   1.39013       .     S
C210  C208   1.39013       .     S
C210  H211   0.95087       .     S
H211  C210   0.95087       .     S
C210  C212   1.39037       .     S
C212  C210   1.39037       .     S
C212  C213   1.39234       .     S
C213  C212   1.39234       .     S
C213  H214   0.95075       .     S
H214  C213   0.95075       .     S
C213  C215   1.38825       .     S
C215  C213   1.38825       .     S
C215  H216   0.94947       .     S
H216  C215   0.94947       .     S
Na220 O221   2.17983       .     S
O221  Na220  2.17983       .     S
Na220 O222   2.17983   1_554     S
O222  Na220  2.17983   1_556     S
Na220 O223   2.17983       .     S
O223  Na220  2.17983       .     S
O13   H7     2.26329       .     S
H7    O13    2.26329       .     S
O14   H10    2.26329       .     S
H10   O14    2.26329       .     S
N1    H0     0.88126       .     S
H0    N1     0.88126       .     S
H3    H0     0.27454       .     S
H0    H3     0.27454       .     S
H2    N1     0.88089       .     S
N1    H2     0.88089       .     S
H3    N1     0.88089       .     S
N1    H3     0.88089       .     S
H4    N1     0.88126       .     S
N1    H4     0.88126       .     S
C5    N1     1.48893       .     S
N1    C5     1.48893       .     S
H4    H2     0.27454       .     S
H2    H4     0.27454       .     S
N6    C5     1.27999       .     S
C5    N6     1.27999       .     S
N9    C5     1.27999       .     S
C5    N9     1.27999       .     S
H7    N6     0.88156       .     S
N6    H7     0.88156       .     S
H8    N6     0.87948       .     S
N6    H8     0.87948       .     S
H10   N9     0.88156       .     S
N9    H10    0.88156       .     S
H11   N9     0.87948       .     S
N9    H11    0.87948       .     S
O13   N12    1.35368       .     S
N12   O13    1.35368       .     S
O14   N12    1.35368       .     S
N12   O14    1.35368       .     S
O15   N12    1.35368       .     S
N12   O15    1.35368       .     S
I17   Pb16   2.79059       .     S
Pb16  I17    2.79059       .     S
I18   Pb16   3.09042       .     S
Pb16  I18    3.09042       .     S
I19   Pb16   3.09042       .     S
Pb16  I19    3.09042       .     S
I22   Pb16   3.09042       .     S
Pb16  I22    3.09042       .     S
Pb24  I18    3.09042       .     S
I18   Pb24   3.09042       .     S
Pb26  I18    3.09042       .     S
I18   Pb26   3.09042       .     S
Pb21  I19    3.09042       .     S
I19   Pb21   3.09042       .     S
Pb24  I19    3.09042       .     S
I19   Pb24   3.09042       .     S
Pb21  I20    3.09042       .     S
I20   Pb21   3.09042       .     S
Pb24  I20    3.09042       .     S
I20   Pb24   3.09042       .     S
Pb26  I20    3.09042       .     S
I20   Pb26   3.09042       .     S
I22   Pb21   3.09042       .     S
Pb21  I22    3.09042       .     S
I23   Pb21   2.79059       .     S
Pb21  I23    2.79059       .     S
Pb26  I22    3.09042       .     S
I22   Pb26   3.09042       .     S
I25   Pb24   2.79059       .     S
Pb24  I25    2.79059       .     S
I27   Pb26   2.79059       .     S
Pb26  I27    2.79059       .     S
Na29  O28    2.17983   1_554     S
O28   Na29   2.17983   1_556     S
O30   Na29   2.17983       .     S
Na29  O30    2.17983       .     S
O31   Na29   2.17983   1_556     S
Na29  O31    2.17983   1_554     S
O49   Na29   2.17983       .     S
Na29  O49    2.17983       .     S
O34   Na32   2.17983       .     S
Na32  O34    2.17983       .     S
O143  Na32   2.17983   1_556     S
Na32  O143   2.17983   1_554     S
O224  Na32   2.17983   1_556     S
Na32  O224   2.17983   1_554     S
O225  Na32   2.17983       .     S
Na32  O225   2.17983       .     S
O34   S33    1.44563       .     S
S33   O34    1.44563       .     S
O35   S33    1.44017       .     S
S33   O35    1.44017       .     S
O36   S33    1.44569       .     S
S33   O36    1.44569       .     S
C43   S33    1.78163       .     S
S33   C43    1.78163       .     S
C38   C37    1.49725       .     S
C37   C38    1.49725       .     S
C52   C37    1.37301       .     S
C37   C52    1.37301       .     S
C67   C37    1.39192       .     S
C37   C67    1.39192       .     S
C39   C38    1.39094       .     S
C38   C39    1.39094       .     S
C46   C38    1.39136       .     S
C38   C46    1.39136       .     S
H40   C39    0.94848       .     S
C39   H40    0.94848       .     S
C41   C39    1.39013       .     S
C39   C41    1.39013       .     S
H42   C41    0.95087       .     S
C41   H42    0.95087       .     S
C43   C41    1.39037       .     S
C41   C43    1.39037       .     S
C44   C43    1.39234       .     S
C43   C44    1.39234       .     S
H45   C44    0.95075       .     S
C44   H45    0.95075       .     S
C46   C44    1.38825       .     S
C44   C46    1.38825       .     S
H47   C46    0.94947       .     S
C46   H47    0.94947       .     S
O49   S48    1.44563       .     S
S48   O49    1.44563       .     S
O50   S48    1.44017       .     S
S48   O50    1.44017       .     S
O51   S48    1.44569       .     S
S48   O51    1.44569       .     S
C58   S48    1.78163       .     S
S48   C58    1.78163       .     S
C53   C52    1.49725       .     S
C52   C53    1.49725       .     S
C82   C52    1.39192       .     S
C52   C82    1.39192       .     S
C54   C53    1.39094       .     S
C53   C54    1.39094       .     S
C61   C53    1.39136       .     S
C53   C61    1.39136       .     S
H55   C54    0.94848       .     S
C54   H55    0.94848       .     S
C56   C54    1.39013       .     S
C54   C56    1.39013       .     S
H57   C56    0.95087       .     S
C56   H57    0.95087       .     S
C58   C56    1.39037       .     S
C56   C58    1.39037       .     S
C59   C58    1.39234       .     S
C58   C59    1.39234       .     S
H60   C59    0.95075       .     S
C59   H60    0.95075       .     S
C61   C59    1.38825       .     S
C59   C61    1.38825       .     S
H62   C61    0.94947       .     S
C61   H62    0.94947       .     S
O64   S63    1.44563       .     S
S63   O64    1.44563       .     S
O65   S63    1.44017       .     S
S63   O65    1.44017       .     S
O66   S63    1.44569       .     S
S63   O66    1.44569       .     S
C73   S63    1.78163       .     S
S63   C73    1.78163       .     S
Na125 O64    2.17983       .     S
O64   Na125  2.17983       .     S
C68   C67    1.49725       .     S
C67   C68    1.49725       .     S
C97   C67    1.37301       .     S
C67   C97    1.37301       .     S
C69   C68    1.39094       .     S
C68   C69    1.39094       .     S
C76   C68    1.39136       .     S
C68   C76    1.39136       .     S
H70   C69    0.94848       .     S
C69   H70    0.94848       .     S
C71   C69    1.39013       .     S
C69   C71    1.39013       .     S
H72   C71    0.95087       .     S
C71   H72    0.95087       .     S
C73   C71    1.39037       .     S
C71   C73    1.39037       .     S
C74   C73    1.39234       .     S
C73   C74    1.39234       .     S
H75   C74    0.95075       .     S
C74   H75    0.95075       .     S
C76   C74    1.38825       .     S
C74   C76    1.38825       .     S
H77   C76    0.94947       .     S
C76   H77    0.94947       .     S
O79   S78    1.44563       .     S
S78   O79    1.44563       .     S
O80   S78    1.44017       .     S
S78   O80    1.44017       .     S
O81   S78    1.44569       .     S
S78   O81    1.44569       .     S
C88   S78    1.78163       .     S
S78   C88    1.78163       .     S
Na123 O79    2.17983   1_455     S
O79   Na123  2.17983   1_655     S
C83   C82    1.49725       .     S
C82   C83    1.49725       .     S
C112  C82    1.37301       .     S
C82   C112   1.37301       .     S
C84   C83    1.39094       .     S
C83   C84    1.39094       .     S
C91   C83    1.39136       .     S
C83   C91    1.39136       .     S
H85   C84    0.94848       .     S
C84   H85    0.94848       .     S
C86   C84    1.39013       .     S
C84   C86    1.39013       .     S
H87   C86    0.95087       .     S
C86   H87    0.95087       .     S
C88   C86    1.39036       .     S
C86   C88    1.39036       .     S
C89   C88    1.39234       .     S
C88   C89    1.39234       .     S
H90   C89    0.95075       .     S
C89   H90    0.95075       .     S
C91   C89    1.38825       .     S
C89   C91    1.38825       .     S
H92   C91    0.94947       .     S
C91   H92    0.94947       .     S
O94   S93    1.44563       .     S
S93   O94    1.44563       .     S
O95   S93    1.44017       .     S
S93   O95    1.44017       .     S
O96   S93    1.44569       .     S
S93   O96    1.44569       .     S
C103  S93    1.78163       .     S
S93   C103   1.78163       .     S
Na124 O94    2.17983       .     S
O94   Na124  2.17983       .     S
C98   C97    1.49725       .     S
C97   C98    1.49725       .     S
C112  C97    1.39192       .     S
C97   C112   1.39192       .     S
C99   C98    1.39094       .     S
C98   C99    1.39094       .     S
C106  C98    1.39136       .     S
C98   C106   1.39136       .     S
H100  C99    0.94848       .     S
C99   H100   0.94848       .     S
C101  C99    1.39013       .     S
C99   C101   1.39013       .     S
H102  C101   0.95087       .     S
C101  H102   0.95087       .     S
C103  C101   1.39037       .     S
C101  C103   1.39037       .     S
C104  C103   1.39234       .     S
C103  C104   1.39234       .     S
H105  C104   0.95075       .     S
C104  H105   0.95075       .     S
C106  C104   1.38825       .     S
C104  C106   1.38825       .     S
H107  C106   0.94947       .     S
C106  H107   0.94947       .     S
O109  S108   1.44563       .     S
S108  O109   1.44563       .     S
O110  S108   1.44017       .     S
S108  O110   1.44017       .     S
O111  S108   1.44569       .     S
S108  O111   1.44569       .     S
C118  S108   1.78163       .     S
S108  C118   1.78163       .     S
Na126 O109   2.17983   1_455     S
O109  Na126  2.17983   1_655     S
C113  C112   1.49725       .     S
C112  C113   1.49725       .     S
C114  C113   1.39094       .     S
C113  C114   1.39094       .     S
C121  C113   1.39136       .     S
C113  C121   1.39136       .     S
H115  C114   0.94848       .     S
C114  H115   0.94848       .     S
C116  C114   1.39013       .     S
C114  C116   1.39013       .     S
H117  C116   0.95087       .     S
C116  H117   0.95087       .     S
C118  C116   1.39036       .     S
C116  C118   1.39036       .     S
C119  C118   1.39234       .     S
C118  C119   1.39234       .     S
H120  C119   0.95075       .     S
C119  H120   0.95075       .     S
C121  C119   1.38825       .     S
C119  C121   1.38825       .     S
H122  C121   0.94947       .     S
C121  H122   0.94947       .     S
O188  Na126  2.17983       .     S
Na126 O188   2.17983       .     S
O128  S127   1.44563       .     S
S127  O128   1.44563       .     S
O129  S127   1.44017       .     S
S127  O129   1.44017       .     S
O130  S127   1.44569       .     S
S127  O130   1.44569       .     S
C137  S127   1.78163       .     S
S127  C137   1.78163       .     S
Na220 O128   2.17983   1_554     S
O128  Na220  2.17983   1_556     S
C132  C131   1.49725       .     S
C131  C132   1.49725       .     S
C146  C131   1.37301       .     S
C131  C146   1.37301       .     S
C161  C131   1.39192       .     S
C131  C161   1.39192       .     S
C133  C132   1.39094       .     S
C132  C133   1.39094       .     S
C140  C132   1.39136       .     S
C132  C140   1.39136       .     S
H134  C133   0.94848       .     S
C133  H134   0.94848       .     S
C135  C133   1.39013       .     S
C133  C135   1.39013       .     S
H136  C135   0.95087       .     S
C135  H136   0.95087       .     S
C137  C135   1.39037       .     S
C135  C137   1.39037       .     S
C138  C137   1.39234       .     S
C137  C138   1.39234       .     S
H139  C138   0.95075       .     S
C138  H139   0.95075       .     S
C140  C138   1.38825       .     S
C138  C140   1.38825       .     S
H141  C140   0.94947       .     S
C140  H141   0.94947       .     S
O143  S142   1.44563       .     S
S142  O143   1.44563       .     S
O144  S142   1.44017       .     S
S142  O144   1.44017       .     S
O145  S142   1.44569       .     S
S142  O145   1.44569       .     S
C152  S142   1.78163       .     S
S142  C152   1.78163       .     S
C147  C146   1.49725       .     S
C146  C147   1.49725       .     S
C176  C146   1.39192       .     S
C146  C176   1.39192       .     S
C148  C147   1.39094       .     S
C147  C148   1.39094       .     S
C155  C147   1.39136       .     S
C147  C155   1.39136       .     S
H149  C148   0.94848       .     S
C148  H149   0.94848       .     S
C150  C148   1.39013       .     S
C148  C150   1.39013       .     S
H151  C150   0.95087       .     S
C150  H151   0.95087       .     S
C152  C150   1.39037       .     S
C150  C152   1.39037       .     S
C153  C152   1.39234       .     S
C152  C153   1.39234       .     S
H154  C153   0.95075       .     S
C153  H154   0.95075       .     S
C155  C153   1.38825       .     S
C153  C155   1.38825       .     S
H156  C155   0.94947       .     S
C155  H156   0.94947       .     S
O158  S157   1.44563       .     S
S157  O158   1.44563       .     S
O159  S157   1.44017       .     S
S157  O159   1.44017       .     S
O160  S157   1.44569       .     S
S157  O160   1.44569       .     S
C167  S157   1.78163       .     S
S157  C167   1.78163       .     S
Na217 O158   2.17983       .     S
O158  Na217  2.17983       .     S
C162  C161   1.49725       .     S
C161  C162   1.49725       .     S
C191  C161   1.37301       .     S
C161  C191   1.37301       .     S
C163  C162   1.39094       .     S
C162  C163   1.39094       .     S
C170  C162   1.39136       .     S
C162  C170   1.39136       .     S
H164  C163   0.94848       .     S
C163  H164   0.94848       .     S
C165  C163   1.39013       .     S
C163  C165   1.39013       .     S
H166  C165   0.95087       .     S
C165  H166   0.95087       .     S
C167  C165   1.39036       .     S
C165  C167   1.39036       .     S
C168  C167   1.39234       .     S
C167  C168   1.39234       .     S
H169  C168   0.95075       .     S
C168  H169   0.95075       .     S
C170  C168   1.38825       .     S
C168  C170   1.38825       .     S
H171  C170   0.94947       .     S
C170  H171   0.94947       .     S
O173  S172   1.44563       .     S
S172  O173   1.44563       .     S
O174  S172   1.44017       .     S
S172  O174   1.44017       .     S
O175  S172   1.44569       .     S
S172  O175   1.44569       .     S
C182  S172   1.78163       .     S
S172  C182   1.78163       .     S
Na219 O173   2.17983       .     S
O173  Na219  2.17983       .     S
C177  C176   1.49725       .     S
C176  C177   1.49725       .     S
C206  C176   1.37301       .     S
C176  C206   1.37301       .     S
C178  C177   1.39094       .     S
C177  C178   1.39094       .     S
C185  C177   1.39136       .     S
C177  C185   1.39136       .     S
H179  C178   0.94848       .     S
C178  H179   0.94848       .     S
C180  C178   1.39013       .     S
C178  C180   1.39013       .     S
H181  C180   0.95087       .     S
C180  H181   0.95087       .     S
C182  C180   1.39036       .     S
C180  C182   1.39036       .     S
C183  C182   1.39234       .     S
C182  C183   1.39234       .     S
H184  C183   0.95075       .     S
C183  H184   0.95075       .     S
C185  C183   1.38825       .     S
C183  C185   1.38825       .     S
H186  C185   0.94947       .     S
C185  H186   0.94947       .     S
O188  S187   1.44563       .     S
S187  O188   1.44563       .     S
O189  S187   1.44017       .     S
S187  O189   1.44017       .     S
O190  S187   1.44569       .     S
S187  O190   1.44569       .     S
C197  S187   1.78163       .     S
S187  C197   1.78163       .     S
C192  C191   1.49725       .     S
C191  C192   1.49725       .     S
C206  C191   1.39192       .     S
C191  C206   1.39192       .     S
C193  C192   1.39094       .     S
C192  C193   1.39094       .     S
C200  C192   1.39136       .     S
C192  C200   1.39136       .     S
H194  C193   0.94848       .     S
C193  H194   0.94848       .     S
C195  C193   1.39013       .     S
C193  C195   1.39013       .     S
H196  C195   0.95087       .     S
C195  H196   0.95087       .     S
C197  C195   1.39037       .     S
C195  C197   1.39037       .     S
C198  C197   1.39234       .     S
C197  C198   1.39234       .     S
H199  C198   0.95075       .     S
C198  H199   0.95075       .     S
C200  C198   1.38825       .     S
C198  C200   1.38825       .     S
H201  C200   0.94947       .     S
C200  H201   0.94947       .     S
O203  S202   1.44563       .     S
S202  O203   1.44563       .     S
O204  S202   1.44017       .     S
S202  O204   1.44017       .     S
O205  S202   1.44569       .     S
S202  O205   1.44569       .     S
C212  S202   1.78163       .     S
S202  C212   1.78163       .     S
Na218 O203   2.17983       .     S
O203  Na218  2.17983       .     S
C207  C206   1.49725       .     S
C206  C207   1.49725       .     S
C208  C207   1.39094       .     S
C207  C208   1.39094       .     S
C215  C207   1.39136       .     S
C207  C215   1.39136       .     S
H209  C208   0.94848       .     S
C208  H209   0.94848       .     S
C210  C208   1.39013       .     S
C208  C210   1.39013       .     S
H211  C210   0.95087       .     S
C210  H211   0.95087       .     S
C212  C210   1.39037       .     S
C210  C212   1.39037       .     S
C213  C212   1.39234       .     S
C212  C213   1.39234       .     S
H214  C213   0.95075       .     S
C213  H214   0.95075       .     S
C215  C213   1.38825       .     S
C213  C215   1.38825       .     S
H216  C215   0.94947       .     S
C215  H216   0.94947       .     S
O221  Na220  2.17983       .     S
Na220 O221   2.17983       .     S
O222  Na220  2.17983   1_556     S
Na220 O222   2.17983   1_554     S
O223  Na220  2.17983       .     S
Na220 O223   2.17983       .     S
