data_I
_chemical_name_common  '/data/user2/wty/HOF/MOFDiff/mofdiff/data/test/5-15'
_cell_length_a 26.76200
_cell_length_b 26.76200
_cell_length_c 26.76200
_cell_angle_alpha 90.00000
_cell_angle_beta  90.00000
_cell_angle_gamma 90.00000
_space_group_name_H-M_alt      'P 1'


loop_
_space_group_symop_operation_xyz
  'x, y, z' 

loop_
_atom_site_label
_atom_site_fract_x
_atom_site_fract_y
_atom_site_fract_z
_atom_site_type_symbol
N0      0.2267   0.7733   0.7733     N
O1      0.2457   0.7543    0.812     O
O2       0.188   0.7543   0.7543     O
O3      0.2457    0.812   0.7543     O
Hg4     0.1301   0.1301   0.1301    Hg
I5      0.1749   0.1749    0.052     I
I6       0.052   0.1749   0.1749     I
I7      0.1749    0.052   0.1749     I
Hg8     0.8699   0.1301   0.8699    Hg
I9      0.8251   0.1749    0.948     I
I10      0.948   0.1749   0.8251     I
I11     0.8251    0.052   0.8251     I
Hg12    0.9474   0.9474   0.9474    Hg
I13       0.06     0.94     0.94     I
I14    0.89025  0.89025  0.89025     I
Na15      0.25      0.5      0.0    Na
O16     0.2093   0.5637   0.0188     O
S17     0.5028   0.6891  0.89021     S
O18     0.4812   0.7093   0.9363     O
O19     0.5375   0.7256   0.8695     O
O20     0.5217   0.6384   0.8924     O
C21     0.3453   0.6908   0.7278     C
C22     0.3842   0.6916   0.7681     C
C23     0.4284   0.6653   0.7607     C
H24     0.4335   0.6473   0.7305     H
C25     0.4651   0.6654   0.7974     C
H26     0.4953   0.6475   0.7924     H
C27     0.4577   0.6918   0.8415     C
C28     0.4135   0.7181   0.8489     C
H29     0.4084   0.7361   0.8791     H
C30     0.3768    0.718   0.8122     C
H31     0.3466    0.736   0.8172     H
S32     0.3109   0.4972  0.89021     S
O33     0.2907   0.5188   0.9363     O
O34     0.2744   0.4625   0.8695     O
O35     0.3616   0.4783   0.8924     O
C36     0.3092   0.6547   0.7278     C
C37     0.3084   0.6158   0.7681     C
C38     0.3347   0.5716   0.7607     C
H39     0.3527   0.5665   0.7305     H
C40     0.3346   0.5349   0.7974     C
H41     0.3525   0.5047   0.7924     H
C42     0.3082   0.5423   0.8415     C
C43     0.2819   0.5865   0.8489     C
H44     0.2639   0.5916   0.8791     H
C45      0.282   0.6232   0.8122     C
H46      0.264   0.6534   0.8172     H
S47     0.5028  0.89021   0.6891     S
O48     0.4812   0.9363   0.7093     O
O49     0.5375   0.8695   0.7256     O
O50     0.5217   0.8924   0.6384     O
C51     0.3453   0.7278   0.6908     C
C52     0.3842   0.7681   0.6916     C
C53     0.4284   0.7607   0.6653     C
H54     0.4335   0.7305   0.6473     H
C55     0.4651   0.7974   0.6654     C
H56     0.4953   0.7924   0.6475     H
C57     0.4577   0.8415   0.6918     C
C58     0.4135   0.8489   0.7181     C
H59     0.4084   0.8791   0.7361     H
C60     0.3768   0.8122    0.718     C
H61     0.3466   0.8172    0.736     H
S62    0.10979   0.4972   0.6891     S
O63     0.0637   0.5188   0.7093     O
O64     0.1305   0.4625   0.7256     O
O65     0.1076   0.4783   0.6384     O
C66     0.2722   0.6547   0.6908     C
C67     0.2319   0.6158   0.6916     C
C68     0.2393   0.5716   0.6653     C
H69     0.2695   0.5665   0.6473     H
C70     0.2026   0.5349   0.6654     C
H71     0.2076   0.5047   0.6475     H
C72     0.1585   0.5423   0.6918     C
C73     0.1511   0.5865   0.7181     C
H74     0.1209   0.5916   0.7361     H
C75     0.1878   0.6232    0.718     C
H76     0.1828   0.6534    0.736     H
S77     0.3109  0.89021   0.4972     S
O78     0.2907   0.9363   0.5188     O
O79     0.2744   0.8695   0.4625     O
O80     0.3616   0.8924   0.4783     O
C81     0.3092   0.7278   0.6547     C
C82     0.3084   0.7681   0.6158     C
C83     0.3347   0.7607   0.5716     C
H84     0.3527   0.7305   0.5665     H
C85     0.3346   0.7974   0.5349     C
H86     0.3525   0.7924   0.5047     H
C87     0.3082   0.8415   0.5423     C
C88     0.2819   0.8489   0.5865     C
H89     0.2639   0.8791   0.5916     H
C90      0.282   0.8122   0.6232     C
H91      0.264   0.8172   0.6534     H
S92    0.10979   0.6891   0.4972     S
O93     0.0637   0.7093   0.5188     O
O94     0.1305   0.7256   0.4625     O
O95     0.1076   0.6384   0.4783     O
C96     0.2722   0.6908   0.6547     C
C97     0.2319   0.6916   0.6158     C
C98     0.2393   0.6653   0.5716     C
H99     0.2695   0.6473   0.5665     H
C100    0.2026   0.6654   0.5349     C
H101    0.2076   0.6475   0.5047     H
C102    0.1585   0.6918   0.5423     C
C103    0.1511   0.7181   0.5865     C
H104    0.1209   0.7361   0.5916     H
C105    0.1878    0.718   0.6232     C
H106    0.1828    0.736   0.6534     H
Na107      0.0      0.5     0.75    Na
Na108     0.25      0.0      0.5    Na
Na109      0.5      0.0     0.75    Na
Na110      0.0     0.75      0.5    Na
S111    0.6891   0.4972  0.10979     S
O112    0.7093   0.5188   0.0637     O
O113    0.7256   0.4625   0.1305     O
O114    0.6384   0.4783   0.1076     O
C115    0.6908   0.6547   0.2722     C
C116    0.6916   0.6158   0.2319     C
C117    0.6653   0.5716   0.2393     C
H118    0.6473   0.5665   0.2695     H
C119    0.6654   0.5349   0.2026     C
H120    0.6475   0.5047   0.2076     H
C121    0.6918   0.5423   0.1585     C
C122    0.7181   0.5865   0.1511     C
H123    0.7361   0.5916   0.1209     H
C124     0.718   0.6232   0.1878     C
H125     0.736   0.6534   0.1828     H
S126    0.4972   0.6891  0.10979     S
O127    0.5188   0.7093   0.0637     O
O128    0.4625   0.7256   0.1305     O
O129    0.4783   0.6384   0.1076     O
C130    0.6547   0.6908   0.2722     C
C131    0.6158   0.6916   0.2319     C
C132    0.5716   0.6653   0.2393     C
H133    0.5665   0.6473   0.2695     H
C134    0.5349   0.6654   0.2026     C
H135    0.5047   0.6475   0.2076     H
C136    0.5423   0.6918   0.1585     C
C137    0.5865   0.7181   0.1511     C
H138    0.5916   0.7361   0.1209     H
C139    0.6232    0.718   0.1878     C
H140    0.6534    0.736   0.1828     H
S141   0.89021   0.4972   0.3109     S
O142    0.9363   0.5188   0.2907     O
O143    0.8695   0.4625   0.2744     O
O144    0.8924   0.4783   0.3616     O
C145    0.7278   0.6547   0.3092     C
C146    0.7681   0.6158   0.3084     C
C147    0.7607   0.5716   0.3347     C
H148    0.7305   0.5665   0.3527     H
C149    0.7974   0.5349   0.3346     C
H150    0.7924   0.5047   0.3525     H
C151    0.8415   0.5423   0.3082     C
C152    0.8489   0.5865   0.2819     C
H153    0.8791   0.5916   0.2639     H
C154    0.8122   0.6232    0.282     C
H155    0.8172   0.6534    0.264     H
S156    0.4972  0.89021   0.3109     S
O157    0.5188   0.9363   0.2907     O
O158    0.4625   0.8695   0.2744     O
O159    0.4783   0.8924   0.3616     O
C160    0.6547   0.7278   0.3092     C
C161    0.6158   0.7681   0.3084     C
C162    0.5716   0.7607   0.3347     C
H163    0.5665   0.7305   0.3527     H
C164    0.5349   0.7974   0.3346     C
H165    0.5047   0.7924   0.3525     H
C166    0.5423   0.8415   0.3082     C
C167    0.5865   0.8489   0.2819     C
H168    0.5916   0.8791   0.2639     H
C169    0.6232   0.8122    0.282     C
H170    0.6534   0.8172    0.264     H
S171   0.89021   0.6891   0.5028     S
O172    0.9363   0.7093   0.4812     O
O173    0.8695   0.7256   0.5375     O
O174    0.8924   0.6384   0.5217     O
C175    0.7278   0.6908   0.3453     C
C176    0.7681   0.6916   0.3842     C
C177    0.7607   0.6653   0.4284     C
H178    0.7305   0.6473   0.4335     H
C179    0.7974   0.6654   0.4651     C
H180    0.7924   0.6475   0.4953     H
C181    0.8415   0.6918   0.4577     C
C182    0.8489   0.7181   0.4135     C
H183    0.8791   0.7361   0.4084     H
C184    0.8122    0.718   0.3768     C
H185    0.8172    0.736   0.3466     H
S186    0.6891  0.89021   0.5028     S
O187    0.7093   0.9363   0.4812     O
O188    0.7256   0.8695   0.5375     O
O189    0.6384   0.8924   0.5217     O
C190    0.6908   0.7278   0.3453     C
C191    0.6916   0.7681   0.3842     C
C192    0.6653   0.7607   0.4284     C
H193    0.6473   0.7305   0.4335     H
C194    0.6654   0.7974   0.4651     C
H195    0.6475   0.7924   0.4953     H
C196    0.6918   0.8415   0.4577     C
C197    0.7181   0.8489   0.4135     C
H198    0.7361   0.8791   0.4084     H
C199     0.718   0.8122   0.3768     C
H200     0.736   0.8172   0.3466     H
Na201      0.0      0.5     0.25    Na
Na202     0.75      0.0      0.5    Na
Na203      0.5      0.0     0.25    Na
Na204     0.75      0.5      0.0    Na
O205    0.7907   0.4363   0.0188     O
O206    0.7093   0.4812   0.9363     O
O207    0.7907   0.5637   0.9812     O
Na208      0.5     0.75      0.0    Na
O209    0.4363   0.7907   0.0188     O
O210    0.5637   0.7907   0.9812     O
O211    0.2093   0.4363   0.9812     O
O212    0.2907   0.4812   0.0637     O
Hg213   0.1301   0.8699   0.8699    Hg
I214    0.1749   0.8251    0.948     I
I215     0.052   0.8251   0.8251     I
I216    0.1749    0.948   0.8251     I
Hg217   0.0526   0.0526   0.9474    Hg
I218      0.94     0.06     0.94     I
I219   0.10975  0.10975  0.89025     I
Hg220   0.8699   0.8699   0.1301    Hg
I221    0.8251   0.8251    0.052     I
I222     0.948   0.8251   0.1749     I
I223    0.8251    0.948   0.1749     I
Hg224   0.9474   0.0526   0.0526    Hg
I225      0.06     0.06     0.06     I
I226   0.89025  0.10975  0.10975     I
Hg227   0.0526   0.9474   0.0526    Hg
I228      0.94     0.94     0.06     I
I229   0.10975  0.89025  0.10975     I
loop_
_geom_bond_atom_site_label_1
_geom_bond_atom_site_label_2
_geom_bond_distance
_geom_bond_site_symmetry_2
_ccdc_geom_bond_type
N0    O1     1.26085       .     S
O1    N0     1.26085       .     S
N0    O2     1.26085       .     S
O2    N0     1.26085       .     S
N0    O3     1.26085       .     S
O3    N0     1.26085       .     S
Hg4   I5     2.69137       .     S
I5    Hg4    2.69137       .     S
Hg4   I6     2.69137       .     S
I6    Hg4    2.69137       .     S
Hg4   I7     2.69137       .     S
I7    Hg4    2.69137       .     S
Hg8   I9     2.69137       .     S
I9    Hg8    2.69137       .     S
Hg8   I10    2.69137       .     S
I10   Hg8    2.69137       .     S
Hg8   I11    2.69137       .     S
I11   Hg8    2.69137       .     S
Hg12  I14    2.64908       .     S
I14   Hg12   2.64908       .     S
Na15  O16    2.08462       .     S
O16   Na15   2.08462       .     S
Na15  O33    2.08462   1_554     S
O33   Na15   2.08463   1_556     S
Na15  O211   2.08462   1_554     S
O211  Na15   2.08462   1_556     S
Na15  O212   2.08462       .     S
O212  Na15   2.08462       .     S
S17   O18    1.46554       .     S
O18   S17    1.46554       .     S
S17   O19    1.45730       .     S
O19   S17    1.45730       .     S
S17   O20    1.44923       .     S
O20   S17    1.44923       .     S
S17   C27    1.77800       .     S
C27   S17    1.77800       .     S
O18   Na208  2.08462   1_556     S
Na208 O18    2.08462   1_554     S
C21   C22    1.49914       .     S
C22   C21    1.49914       .     S
C21   C36    1.36628       .     S
C36   C21    1.36628       .     S
C21   C51    1.40034       .     S
C51   C21    1.40034       .     S
C22   C23    1.39062       .     S
C23   C22    1.39062       .     S
C22   C30    1.38970       .     S
C30   C22    1.38970       .     S
C23   H24    0.95073       .     S
H24   C23    0.95073       .     S
C23   C25    1.38899       .     S
C25   C23    1.38899       .     S
C25   H26    0.94900       .     S
H26   C25    0.94900       .     S
C25   C27    1.38970       .     S
C27   C25    1.38970       .     S
C27   C28    1.39062       .     S
C28   C27    1.39062       .     S
C28   H29    0.95073       .     S
H29   C28    0.95073       .     S
C28   C30    1.38899       .     S
C30   C28    1.38899       .     S
C30   H31    0.95035       .     S
H31   C30    0.95035       .     S
S32   O33    1.46554       .     S
O33   S32    1.46554       .     S
S32   O34    1.45730       .     S
O34   S32    1.45730       .     S
S32   O35    1.44923       .     S
O35   S32    1.44923       .     S
S32   C42    1.77800       .     S
C42   S32    1.77800       .     S
C36   C37    1.49913       .     S
C37   C36    1.49913       .     S
C36   C66    1.40035       .     S
C66   C36    1.40035       .     S
C37   C38    1.39062       .     S
C38   C37    1.39062       .     S
C37   C45    1.38970       .     S
C45   C37    1.38970       .     S
C38   H39    0.95073       .     S
H39   C38    0.95073       .     S
C38   C40    1.38899       .     S
C40   C38    1.38899       .     S
C40   H41    0.94900       .     S
H41   C40    0.94900       .     S
C40   C42    1.38970       .     S
C42   C40    1.38970       .     S
C42   C43    1.39062       .     S
C43   C42    1.39062       .     S
C43   H44    0.95073       .     S
H44   C43    0.95073       .     S
C43   C45    1.38899       .     S
C45   C43    1.38899       .     S
C45   H46    0.95035       .     S
H46   C45    0.95035       .     S
S47   O48    1.46554       .     S
O48   S47    1.46554       .     S
S47   O49    1.45730       .     S
O49   S47    1.45730       .     S
S47   O50    1.44923       .     S
O50   S47    1.44923       .     S
S47   C57    1.77800       .     S
C57   S47    1.77800       .     S
O48   Na109  2.08462   1_565     S
Na109 O48    2.08462   1_545     S
C51   C52    1.49914       .     S
C52   C51    1.49914       .     S
C51   C81    1.36628       .     S
C81   C51    1.36628       .     S
C52   C53    1.39062       .     S
C53   C52    1.39062       .     S
C52   C60    1.38970       .     S
C60   C52    1.38970       .     S
C53   H54    0.95073       .     S
H54   C53    0.95073       .     S
C53   C55    1.38899       .     S
C55   C53    1.38899       .     S
C55   H56    0.94900       .     S
H56   C55    0.94900       .     S
C55   C57    1.38970       .     S
C57   C55    1.38970       .     S
C57   C58    1.39062       .     S
C58   C57    1.39062       .     S
C58   H59    0.95073       .     S
H59   C58    0.95073       .     S
C58   C60    1.38899       .     S
C60   C58    1.38899       .     S
C60   H61    0.95035       .     S
H61   C60    0.95035       .     S
S62   O63    1.46554       .     S
O63   S62    1.46554       .     S
S62   O64    1.45730       .     S
O64   S62    1.45730       .     S
S62   O65    1.44923       .     S
O65   S62    1.44923       .     S
S62   C72    1.77800       .     S
C72   S62    1.77800       .     S
O63   Na107  2.08462       .     S
Na107 O63    2.08462       .     S
C66   C67    1.49913       .     S
C67   C66    1.49913       .     S
C66   C96    1.36628       .     S
C96   C66    1.36628       .     S
C67   C68    1.39062       .     S
C68   C67    1.39062       .     S
C67   C75    1.38970       .     S
C75   C67    1.38970       .     S
C68   H69    0.95073       .     S
H69   C68    0.95073       .     S
C68   C70    1.38899       .     S
C70   C68    1.38899       .     S
C70   H71    0.94900       .     S
H71   C70    0.94900       .     S
C70   C72    1.38970       .     S
C72   C70    1.38970       .     S
C72   C73    1.39062       .     S
C73   C72    1.39062       .     S
C73   H74    0.95073       .     S
H74   C73    0.95073       .     S
C73   C75    1.38899       .     S
C75   C73    1.38899       .     S
C75   H76    0.95035       .     S
H76   C75    0.95035       .     S
S77   O78    1.46554       .     S
O78   S77    1.46554       .     S
S77   O79    1.45730       .     S
O79   S77    1.45730       .     S
S77   O80    1.44923       .     S
O80   S77    1.44923       .     S
S77   C87    1.77800       .     S
C87   S77    1.77800       .     S
O78   Na108  2.08462   1_565     S
Na108 O78    2.08462   1_545     S
C81   C82    1.49914       .     S
C82   C81    1.49914       .     S
C81   C96    1.40034       .     S
C96   C81    1.40034       .     S
C82   C83    1.39062       .     S
C83   C82    1.39062       .     S
C82   C90    1.38970       .     S
C90   C82    1.38970       .     S
C83   H84    0.95073       .     S
H84   C83    0.95073       .     S
C83   C85    1.38899       .     S
C85   C83    1.38899       .     S
C85   H86    0.94899       .     S
H86   C85    0.94899       .     S
C85   C87    1.38970       .     S
C87   C85    1.38970       .     S
C87   C88    1.39062       .     S
C88   C87    1.39062       .     S
C88   H89    0.95073       .     S
H89   C88    0.95073       .     S
C88   C90    1.38899       .     S
C90   C88    1.38899       .     S
C90   H91    0.95035       .     S
H91   C90    0.95035       .     S
S92   O93    1.46554       .     S
O93   S92    1.46554       .     S
S92   O94    1.45730       .     S
O94   S92    1.45730       .     S
S92   O95    1.44923       .     S
O95   S92    1.44923       .     S
S92   C102   1.77800       .     S
C102  S92    1.77800       .     S
O93   Na110  2.08462       .     S
Na110 O93    2.08462       .     S
C96   C97    1.49914       .     S
C97   C96    1.49914       .     S
C97   C98    1.39062       .     S
C98   C97    1.39062       .     S
C97   C105   1.38970       .     S
C105  C97    1.38970       .     S
C98   H99    0.95073       .     S
H99   C98    0.95073       .     S
C98   C100   1.38899       .     S
C100  C98    1.38899       .     S
C100  H101   0.94900       .     S
H101  C100   0.94900       .     S
C100  C102   1.38970       .     S
C102  C100   1.38970       .     S
C102  C103   1.39062       .     S
C103  C102   1.39062       .     S
C103  H104   0.95073       .     S
H104  C103   0.95073       .     S
C103  C105   1.38900       .     S
C105  C103   1.38900       .     S
C105  H106   0.95035       .     S
H106  C105   0.95035       .     S
Na110 O172   2.08463   1_455     S
O172  Na110  2.08463   1_655     S
S111  O112   1.46554       .     S
O112  S111   1.46554       .     S
S111  O113   1.45730       .     S
O113  S111   1.45730       .     S
S111  O114   1.44923       .     S
O114  S111   1.44923       .     S
S111  C121   1.77800       .     S
C121  S111   1.77800       .     S
O112  Na204  2.08462       .     S
Na204 O112   2.08462       .     S
C115  C116   1.49913       .     S
C116  C115   1.49913       .     S
C115  C130   1.36629       .     S
C130  C115   1.36629       .     S
C115  C145   1.40034       .     S
C145  C115   1.40034       .     S
C116  C117   1.39062       .     S
C117  C116   1.39062       .     S
C116  C124   1.38970       .     S
C124  C116   1.38970       .     S
C117  H118   0.95073       .     S
H118  C117   0.95073       .     S
C117  C119   1.38899       .     S
C119  C117   1.38899       .     S
C119  H120   0.94900       .     S
H120  C119   0.94900       .     S
C119  C121   1.38970       .     S
C121  C119   1.38970       .     S
C121  C122   1.39062       .     S
C122  C121   1.39062       .     S
C122  H123   0.95073       .     S
H123  C122   0.95073       .     S
C122  C124   1.38899       .     S
C124  C122   1.38899       .     S
C124  H125   0.95035       .     S
H125  C124   0.95035       .     S
S126  O127   1.46554       .     S
O127  S126   1.46554       .     S
S126  O128   1.45730       .     S
O128  S126   1.45730       .     S
S126  O129   1.44923       .     S
O129  S126   1.44923       .     S
S126  C136   1.77800       .     S
C136  S126   1.77800       .     S
O127  Na208  2.08462       .     S
Na208 O127   2.08462       .     S
C130  C131   1.49913       .     S
C131  C130   1.49913       .     S
C130  C160   1.40034       .     S
C160  C130   1.40034       .     S
C131  C132   1.39062       .     S
C132  C131   1.39062       .     S
C131  C139   1.38970       .     S
C139  C131   1.38970       .     S
C132  H133   0.95073       .     S
H133  C132   0.95073       .     S
C132  C134   1.38899       .     S
C134  C132   1.38899       .     S
C134  H135   0.94900       .     S
H135  C134   0.94900       .     S
C134  C136   1.38970       .     S
C136  C134   1.38970       .     S
C136  C137   1.39062       .     S
C137  C136   1.39062       .     S
C137  H138   0.95073       .     S
H138  C137   0.95073       .     S
C137  C139   1.38899       .     S
C139  C137   1.38899       .     S
C139  H140   0.95035       .     S
H140  C139   0.95035       .     S
S141  O142   1.46554       .     S
O142  S141   1.46554       .     S
S141  O143   1.45730       .     S
O143  S141   1.45730       .     S
S141  O144   1.44923       .     S
O144  S141   1.44923       .     S
S141  C151   1.77800       .     S
C151  S141   1.77800       .     S
O142  Na201  2.08463   1_655     S
Na201 O142   2.08463   1_455     S
C145  C146   1.49914       .     S
C146  C145   1.49914       .     S
C145  C175   1.36628       .     S
C175  C145   1.36628       .     S
C146  C147   1.39062       .     S
C147  C146   1.39062       .     S
C146  C154   1.38970       .     S
C154  C146   1.38970       .     S
C147  H148   0.95073       .     S
H148  C147   0.95073       .     S
C147  C149   1.38899       .     S
C149  C147   1.38899       .     S
C149  H150   0.94900       .     S
H150  C149   0.94900       .     S
C149  C151   1.38970       .     S
C151  C149   1.38970       .     S
C151  C152   1.39062       .     S
C152  C151   1.39062       .     S
C152  H153   0.95073       .     S
H153  C152   0.95073       .     S
C152  C154   1.38899       .     S
C154  C152   1.38899       .     S
C154  H155   0.95035       .     S
H155  C154   0.95035       .     S
S156  O157   1.46554       .     S
O157  S156   1.46554       .     S
S156  O158   1.45730       .     S
O158  S156   1.45730       .     S
S156  O159   1.44923       .     S
O159  S156   1.44923       .     S
S156  C166   1.77800       .     S
C166  S156   1.77800       .     S
O157  Na203  2.08463   1_565     S
Na203 O157   2.08463   1_545     S
C160  C161   1.49914       .     S
C161  C160   1.49914       .     S
C160  C190   1.36628       .     S
C190  C160   1.36628       .     S
C161  C162   1.39062       .     S
C162  C161   1.39062       .     S
C161  C169   1.38970       .     S
C169  C161   1.38970       .     S
C162  H163   0.95073       .     S
H163  C162   0.95073       .     S
C162  C164   1.38899       .     S
C164  C162   1.38899       .     S
C164  H165   0.94900       .     S
H165  C164   0.94900       .     S
C164  C166   1.38970       .     S
C166  C164   1.38970       .     S
C166  C167   1.39062       .     S
C167  C166   1.39062       .     S
C167  H168   0.95073       .     S
H168  C167   0.95073       .     S
C167  C169   1.38899       .     S
C169  C167   1.38899       .     S
C169  H170   0.95035       .     S
H170  C169   0.95035       .     S
S171  O172   1.46554       .     S
O172  S171   1.46554       .     S
S171  O173   1.45730       .     S
O173  S171   1.45730       .     S
S171  O174   1.44923       .     S
O174  S171   1.44923       .     S
S171  C181   1.77800       .     S
C181  S171   1.77800       .     S
C175  C176   1.49914       .     S
C176  C175   1.49914       .     S
C175  C190   1.40034       .     S
C190  C175   1.40034       .     S
C176  C177   1.39062       .     S
C177  C176   1.39062       .     S
C176  C184   1.38970       .     S
C184  C176   1.38970       .     S
C177  H178   0.95073       .     S
H178  C177   0.95073       .     S
C177  C179   1.38899       .     S
C179  C177   1.38899       .     S
C179  H180   0.94900       .     S
H180  C179   0.94900       .     S
C179  C181   1.38970       .     S
C181  C179   1.38970       .     S
C181  C182   1.39062       .     S
C182  C181   1.39062       .     S
C182  H183   0.95073       .     S
H183  C182   0.95073       .     S
C182  C184   1.38899       .     S
C184  C182   1.38899       .     S
C184  H185   0.95035       .     S
H185  C184   0.95035       .     S
S186  O187   1.46554       .     S
O187  S186   1.46554       .     S
S186  O188   1.45730       .     S
O188  S186   1.45730       .     S
S186  O189   1.44923       .     S
O189  S186   1.44923       .     S
S186  C196   1.77800       .     S
C196  S186   1.77800       .     S
O187  Na202  2.08463   1_565     S
Na202 O187   2.08463   1_545     S
C190  C191   1.49914       .     S
C191  C190   1.49914       .     S
C191  C192   1.39062       .     S
C192  C191   1.39062       .     S
C191  C199   1.38970       .     S
C199  C191   1.38970       .     S
C192  H193   0.95073       .     S
H193  C192   0.95073       .     S
C192  C194   1.38899       .     S
C194  C192   1.38899       .     S
C194  H195   0.94900       .     S
H195  C194   0.94900       .     S
C194  C196   1.38970       .     S
C196  C194   1.38970       .     S
C196  C197   1.39062       .     S
C197  C196   1.39062       .     S
C197  H198   0.95073       .     S
H198  C197   0.95073       .     S
C197  C199   1.38899       .     S
C199  C197   1.38899       .     S
C199  H200   0.95035       .     S
H200  C199   0.95035       .     S
Na204 O205   2.08462       .     S
O205  Na204  2.08462       .     S
Na204 O206   2.08462   1_554     S
O206  Na204  2.08462   1_556     S
Na204 O207   2.08463   1_554     S
O207  Na204  2.08463   1_556     S
Na208 O209   2.08462       .     S
O209  Na208  2.08462       .     S
Na208 O210   2.08463   1_554     S
O210  Na208  2.08463   1_556     S
Hg213 I214   2.69137       .     S
I214  Hg213  2.69137       .     S
Hg213 I215   2.69137       .     S
I215  Hg213  2.69137       .     S
Hg213 I216   2.69137       .     S
I216  Hg213  2.69137       .     S
Hg217 I219   2.64908       .     S
I219  Hg217  2.64908       .     S
Hg220 I221   2.69137       .     S
I221  Hg220  2.69137       .     S
Hg220 I222   2.69137       .     S
I222  Hg220  2.69137       .     S
Hg220 I223   2.69137       .     S
I223  Hg220  2.69137       .     S
Hg224 I226   2.64908       .     S
I226  Hg224  2.64908       .     S
Hg227 I229   2.64908       .     S
I229  Hg227  2.64908       .     S
O1    N0     1.26085       .     S
N0    O1     1.26085       .     S
O2    N0     1.26085       .     S
N0    O2     1.26085       .     S
O3    N0     1.26085       .     S
N0    O3     1.26085       .     S
I5    Hg4    2.69137       .     S
Hg4   I5     2.69137       .     S
I6    Hg4    2.69137       .     S
Hg4   I6     2.69137       .     S
I7    Hg4    2.69137       .     S
Hg4   I7     2.69137       .     S
I9    Hg8    2.69137       .     S
Hg8   I9     2.69137       .     S
I10   Hg8    2.69137       .     S
Hg8   I10    2.69137       .     S
I11   Hg8    2.69137       .     S
Hg8   I11    2.69137       .     S
I14   Hg12   2.64908       .     S
Hg12  I14    2.64908       .     S
O16   Na15   2.08462       .     S
Na15  O16    2.08462       .     S
O33   Na15   2.08463   1_556     S
Na15  O33    2.08462   1_554     S
O211  Na15   2.08462   1_556     S
Na15  O211   2.08462   1_554     S
O212  Na15   2.08462       .     S
Na15  O212   2.08462       .     S
O18   S17    1.46554       .     S
S17   O18    1.46554       .     S
O19   S17    1.45730       .     S
S17   O19    1.45730       .     S
O20   S17    1.44923       .     S
S17   O20    1.44923       .     S
C27   S17    1.77800       .     S
S17   C27    1.77800       .     S
Na208 O18    2.08462   1_554     S
O18   Na208  2.08462   1_556     S
C22   C21    1.49914       .     S
C21   C22    1.49914       .     S
C36   C21    1.36628       .     S
C21   C36    1.36628       .     S
C51   C21    1.40034       .     S
C21   C51    1.40034       .     S
C23   C22    1.39062       .     S
C22   C23    1.39062       .     S
C30   C22    1.38970       .     S
C22   C30    1.38970       .     S
H24   C23    0.95073       .     S
C23   H24    0.95073       .     S
C25   C23    1.38899       .     S
C23   C25    1.38899       .     S
H26   C25    0.94900       .     S
C25   H26    0.94900       .     S
C27   C25    1.38970       .     S
C25   C27    1.38970       .     S
C28   C27    1.39062       .     S
C27   C28    1.39062       .     S
H29   C28    0.95073       .     S
C28   H29    0.95073       .     S
C30   C28    1.38899       .     S
C28   C30    1.38899       .     S
H31   C30    0.95035       .     S
C30   H31    0.95035       .     S
O33   S32    1.46554       .     S
S32   O33    1.46554       .     S
O34   S32    1.45730       .     S
S32   O34    1.45730       .     S
O35   S32    1.44923       .     S
S32   O35    1.44923       .     S
C42   S32    1.77800       .     S
S32   C42    1.77800       .     S
C37   C36    1.49913       .     S
C36   C37    1.49913       .     S
C66   C36    1.40035       .     S
C36   C66    1.40035       .     S
C38   C37    1.39062       .     S
C37   C38    1.39062       .     S
C45   C37    1.38970       .     S
C37   C45    1.38970       .     S
H39   C38    0.95073       .     S
C38   H39    0.95073       .     S
C40   C38    1.38899       .     S
C38   C40    1.38899       .     S
H41   C40    0.94900       .     S
C40   H41    0.94900       .     S
C42   C40    1.38970       .     S
C40   C42    1.38970       .     S
C43   C42    1.39062       .     S
C42   C43    1.39062       .     S
H44   C43    0.95073       .     S
C43   H44    0.95073       .     S
C45   C43    1.38899       .     S
C43   C45    1.38899       .     S
H46   C45    0.95035       .     S
C45   H46    0.95035       .     S
O48   S47    1.46554       .     S
S47   O48    1.46554       .     S
O49   S47    1.45730       .     S
S47   O49    1.45730       .     S
O50   S47    1.44923       .     S
S47   O50    1.44923       .     S
C57   S47    1.77800       .     S
S47   C57    1.77800       .     S
Na109 O48    2.08462   1_545     S
O48   Na109  2.08462   1_565     S
C52   C51    1.49914       .     S
C51   C52    1.49914       .     S
C81   C51    1.36628       .     S
C51   C81    1.36628       .     S
C53   C52    1.39062       .     S
C52   C53    1.39062       .     S
C60   C52    1.38970       .     S
C52   C60    1.38970       .     S
H54   C53    0.95073       .     S
C53   H54    0.95073       .     S
C55   C53    1.38899       .     S
C53   C55    1.38899       .     S
H56   C55    0.94900       .     S
C55   H56    0.94900       .     S
C57   C55    1.38970       .     S
C55   C57    1.38970       .     S
C58   C57    1.39062       .     S
C57   C58    1.39062       .     S
H59   C58    0.95073       .     S
C58   H59    0.95073       .     S
C60   C58    1.38899       .     S
C58   C60    1.38899       .     S
H61   C60    0.95035       .     S
C60   H61    0.95035       .     S
O63   S62    1.46554       .     S
S62   O63    1.46554       .     S
O64   S62    1.45730       .     S
S62   O64    1.45730       .     S
O65   S62    1.44923       .     S
S62   O65    1.44923       .     S
C72   S62    1.77800       .     S
S62   C72    1.77800       .     S
Na107 O63    2.08462       .     S
O63   Na107  2.08462       .     S
C67   C66    1.49913       .     S
C66   C67    1.49913       .     S
C96   C66    1.36628       .     S
C66   C96    1.36628       .     S
C68   C67    1.39062       .     S
C67   C68    1.39062       .     S
C75   C67    1.38970       .     S
C67   C75    1.38970       .     S
H69   C68    0.95073       .     S
C68   H69    0.95073       .     S
C70   C68    1.38899       .     S
C68   C70    1.38899       .     S
H71   C70    0.94900       .     S
C70   H71    0.94900       .     S
C72   C70    1.38970       .     S
C70   C72    1.38970       .     S
C73   C72    1.39062       .     S
C72   C73    1.39062       .     S
H74   C73    0.95073       .     S
C73   H74    0.95073       .     S
C75   C73    1.38899       .     S
C73   C75    1.38899       .     S
H76   C75    0.95035       .     S
C75   H76    0.95035       .     S
O78   S77    1.46554       .     S
S77   O78    1.46554       .     S
O79   S77    1.45730       .     S
S77   O79    1.45730       .     S
O80   S77    1.44923       .     S
S77   O80    1.44923       .     S
C87   S77    1.77800       .     S
S77   C87    1.77800       .     S
Na108 O78    2.08462   1_545     S
O78   Na108  2.08462   1_565     S
C82   C81    1.49914       .     S
C81   C82    1.49914       .     S
C96   C81    1.40034       .     S
C81   C96    1.40034       .     S
C83   C82    1.39062       .     S
C82   C83    1.39062       .     S
C90   C82    1.38970       .     S
C82   C90    1.38970       .     S
H84   C83    0.95073       .     S
C83   H84    0.95073       .     S
C85   C83    1.38899       .     S
C83   C85    1.38899       .     S
H86   C85    0.94899       .     S
C85   H86    0.94899       .     S
C87   C85    1.38970       .     S
C85   C87    1.38970       .     S
C88   C87    1.39062       .     S
C87   C88    1.39062       .     S
H89   C88    0.95073       .     S
C88   H89    0.95073       .     S
C90   C88    1.38899       .     S
C88   C90    1.38899       .     S
H91   C90    0.95035       .     S
C90   H91    0.95035       .     S
O93   S92    1.46554       .     S
S92   O93    1.46554       .     S
O94   S92    1.45730       .     S
S92   O94    1.45730       .     S
O95   S92    1.44923       .     S
S92   O95    1.44923       .     S
C102  S92    1.77800       .     S
S92   C102   1.77800       .     S
Na110 O93    2.08462       .     S
O93   Na110  2.08462       .     S
C97   C96    1.49914       .     S
C96   C97    1.49914       .     S
C98   C97    1.39062       .     S
C97   C98    1.39062       .     S
C105  C97    1.38970       .     S
C97   C105   1.38970       .     S
H99   C98    0.95073       .     S
C98   H99    0.95073       .     S
C100  C98    1.38899       .     S
C98   C100   1.38899       .     S
H101  C100   0.94900       .     S
C100  H101   0.94900       .     S
C102  C100   1.38970       .     S
C100  C102   1.38970       .     S
C103  C102   1.39062       .     S
C102  C103   1.39062       .     S
H104  C103   0.95073       .     S
C103  H104   0.95073       .     S
C105  C103   1.38900       .     S
C103  C105   1.38900       .     S
H106  C105   0.95035       .     S
C105  H106   0.95035       .     S
O172  Na110  2.08463   1_655     S
Na110 O172   2.08463   1_455     S
O112  S111   1.46554       .     S
S111  O112   1.46554       .     S
O113  S111   1.45730       .     S
S111  O113   1.45730       .     S
O114  S111   1.44923       .     S
S111  O114   1.44923       .     S
C121  S111   1.77800       .     S
S111  C121   1.77800       .     S
Na204 O112   2.08462       .     S
O112  Na204  2.08462       .     S
C116  C115   1.49913       .     S
C115  C116   1.49913       .     S
C130  C115   1.36629       .     S
C115  C130   1.36629       .     S
C145  C115   1.40034       .     S
C115  C145   1.40034       .     S
C117  C116   1.39062       .     S
C116  C117   1.39062       .     S
C124  C116   1.38970       .     S
C116  C124   1.38970       .     S
H118  C117   0.95073       .     S
C117  H118   0.95073       .     S
C119  C117   1.38899       .     S
C117  C119   1.38899       .     S
H120  C119   0.94900       .     S
C119  H120   0.94900       .     S
C121  C119   1.38970       .     S
C119  C121   1.38970       .     S
C122  C121   1.39062       .     S
C121  C122   1.39062       .     S
H123  C122   0.95073       .     S
C122  H123   0.95073       .     S
C124  C122   1.38899       .     S
C122  C124   1.38899       .     S
H125  C124   0.95035       .     S
C124  H125   0.95035       .     S
O127  S126   1.46554       .     S
S126  O127   1.46554       .     S
O128  S126   1.45730       .     S
S126  O128   1.45730       .     S
O129  S126   1.44923       .     S
S126  O129   1.44923       .     S
C136  S126   1.77800       .     S
S126  C136   1.77800       .     S
Na208 O127   2.08462       .     S
O127  Na208  2.08462       .     S
C131  C130   1.49913       .     S
C130  C131   1.49913       .     S
C160  C130   1.40034       .     S
C130  C160   1.40034       .     S
C132  C131   1.39062       .     S
C131  C132   1.39062       .     S
C139  C131   1.38970       .     S
C131  C139   1.38970       .     S
H133  C132   0.95073       .     S
C132  H133   0.95073       .     S
C134  C132   1.38899       .     S
C132  C134   1.38899       .     S
H135  C134   0.94900       .     S
C134  H135   0.94900       .     S
C136  C134   1.38970       .     S
C134  C136   1.38970       .     S
C137  C136   1.39062       .     S
C136  C137   1.39062       .     S
H138  C137   0.95073       .     S
C137  H138   0.95073       .     S
C139  C137   1.38899       .     S
C137  C139   1.38899       .     S
H140  C139   0.95035       .     S
C139  H140   0.95035       .     S
O142  S141   1.46554       .     S
S141  O142   1.46554       .     S
O143  S141   1.45730       .     S
S141  O143   1.45730       .     S
O144  S141   1.44923       .     S
S141  O144   1.44923       .     S
C151  S141   1.77800       .     S
S141  C151   1.77800       .     S
Na201 O142   2.08463   1_455     S
O142  Na201  2.08463   1_655     S
C146  C145   1.49914       .     S
C145  C146   1.49914       .     S
C175  C145   1.36628       .     S
C145  C175   1.36628       .     S
C147  C146   1.39062       .     S
C146  C147   1.39062       .     S
C154  C146   1.38970       .     S
C146  C154   1.38970       .     S
H148  C147   0.95073       .     S
C147  H148   0.95073       .     S
C149  C147   1.38899       .     S
C147  C149   1.38899       .     S
H150  C149   0.94900       .     S
C149  H150   0.94900       .     S
C151  C149   1.38970       .     S
C149  C151   1.38970       .     S
C152  C151   1.39062       .     S
C151  C152   1.39062       .     S
H153  C152   0.95073       .     S
C152  H153   0.95073       .     S
C154  C152   1.38899       .     S
C152  C154   1.38899       .     S
H155  C154   0.95035       .     S
C154  H155   0.95035       .     S
O157  S156   1.46554       .     S
S156  O157   1.46554       .     S
O158  S156   1.45730       .     S
S156  O158   1.45730       .     S
O159  S156   1.44923       .     S
S156  O159   1.44923       .     S
C166  S156   1.77800       .     S
S156  C166   1.77800       .     S
Na203 O157   2.08463   1_545     S
O157  Na203  2.08463   1_565     S
C161  C160   1.49914       .     S
C160  C161   1.49914       .     S
C190  C160   1.36628       .     S
C160  C190   1.36628       .     S
C162  C161   1.39062       .     S
C161  C162   1.39062       .     S
C169  C161   1.38970       .     S
C161  C169   1.38970       .     S
H163  C162   0.95073       .     S
C162  H163   0.95073       .     S
C164  C162   1.38899       .     S
C162  C164   1.38899       .     S
H165  C164   0.94900       .     S
C164  H165   0.94900       .     S
C166  C164   1.38970       .     S
C164  C166   1.38970       .     S
C167  C166   1.39062       .     S
C166  C167   1.39062       .     S
H168  C167   0.95073       .     S
C167  H168   0.95073       .     S
C169  C167   1.38899       .     S
C167  C169   1.38899       .     S
H170  C169   0.95035       .     S
C169  H170   0.95035       .     S
O172  S171   1.46554       .     S
S171  O172   1.46554       .     S
O173  S171   1.45730       .     S
S171  O173   1.45730       .     S
O174  S171   1.44923       .     S
S171  O174   1.44923       .     S
C181  S171   1.77800       .     S
S171  C181   1.77800       .     S
C176  C175   1.49914       .     S
C175  C176   1.49914       .     S
C190  C175   1.40034       .     S
C175  C190   1.40034       .     S
C177  C176   1.39062       .     S
C176  C177   1.39062       .     S
C184  C176   1.38970       .     S
C176  C184   1.38970       .     S
H178  C177   0.95073       .     S
C177  H178   0.95073       .     S
C179  C177   1.38899       .     S
C177  C179   1.38899       .     S
H180  C179   0.94900       .     S
C179  H180   0.94900       .     S
C181  C179   1.38970       .     S
C179  C181   1.38970       .     S
C182  C181   1.39062       .     S
C181  C182   1.39062       .     S
H183  C182   0.95073       .     S
C182  H183   0.95073       .     S
C184  C182   1.38899       .     S
C182  C184   1.38899       .     S
H185  C184   0.95035       .     S
C184  H185   0.95035       .     S
O187  S186   1.46554       .     S
S186  O187   1.46554       .     S
O188  S186   1.45730       .     S
S186  O188   1.45730       .     S
O189  S186   1.44923       .     S
S186  O189   1.44923       .     S
C196  S186   1.77800       .     S
S186  C196   1.77800       .     S
Na202 O187   2.08463   1_545     S
O187  Na202  2.08463   1_565     S
C191  C190   1.49914       .     S
C190  C191   1.49914       .     S
C192  C191   1.39062       .     S
C191  C192   1.39062       .     S
C199  C191   1.38970       .     S
C191  C199   1.38970       .     S
H193  C192   0.95073       .     S
C192  H193   0.95073       .     S
C194  C192   1.38899       .     S
C192  C194   1.38899       .     S
H195  C194   0.94900       .     S
C194  H195   0.94900       .     S
C196  C194   1.38970       .     S
C194  C196   1.38970       .     S
C197  C196   1.39062       .     S
C196  C197   1.39062       .     S
H198  C197   0.95073       .     S
C197  H198   0.95073       .     S
C199  C197   1.38899       .     S
C197  C199   1.38899       .     S
H200  C199   0.95035       .     S
C199  H200   0.95035       .     S
O205  Na204  2.08462       .     S
Na204 O205   2.08462       .     S
O206  Na204  2.08462   1_556     S
Na204 O206   2.08462   1_554     S
O207  Na204  2.08463   1_556     S
Na204 O207   2.08463   1_554     S
O209  Na208  2.08462       .     S
Na208 O209   2.08462       .     S
O210  Na208  2.08463   1_556     S
Na208 O210   2.08463   1_554     S
I214  Hg213  2.69137       .     S
Hg213 I214   2.69137       .     S
I215  Hg213  2.69137       .     S
Hg213 I215   2.69137       .     S
I216  Hg213  2.69137       .     S
Hg213 I216   2.69137       .     S
I219  Hg217  2.64908       .     S
Hg217 I219   2.64908       .     S
I221  Hg220  2.69137       .     S
Hg220 I221   2.69137       .     S
I222  Hg220  2.69137       .     S
Hg220 I222   2.69137       .     S
I223  Hg220  2.69137       .     S
Hg220 I223   2.69137       .     S
I226  Hg224  2.64908       .     S
Hg224 I226   2.64908       .     S
I229  Hg227  2.64908       .     S
Hg227 I229   2.64908       .     S
