data_I
_chemical_name_common  '/data/user2/wty/HOF/MOFDiff/mofdiff/data/test/5-2'
_cell_length_a 26.95260
_cell_length_b 26.95260
_cell_length_c 26.95260
_cell_angle_alpha 90.00000
_cell_angle_beta  90.00000
_cell_angle_gamma 90.00000
_space_group_name_H-M_alt      'P 1'


loop_
_space_group_symop_operation_xyz
  'x, y, z' 

loop_
_atom_site_label
_atom_site_fract_x
_atom_site_fract_y
_atom_site_fract_z
_atom_site_type_symbol
N0      0.2302   0.7698   0.7698     N
O1      0.2488   0.7512   0.8069     O
O2      0.1931   0.7512   0.7512     O
O3      0.2488   0.8069   0.7512     O
C4      0.1446    0.676   0.8554     C
N5      0.1888   0.6935   0.8729     N
H6      0.2006   0.6825   0.9013     H
H7      0.2055   0.7158   0.8558     H
N8      0.1194   0.6427   0.8806     N
H9       0.131   0.6316    0.909     H
N10     0.1271   0.6935   0.8112     N
H11     0.0987   0.6825   0.7994     H
H12     0.1442   0.7158   0.7945     H
H13      0.091   0.6316    0.869     H
O14     0.2232   0.4246   0.9867     O
Na15      0.25      0.5      0.0    Na
O16     0.2768   0.4867   0.0754     O
O17     0.2232   0.5754   0.0133     O
S18    0.50814   0.7024  0.88134     S
O19     0.4867   0.7232   0.9246     O
O20     0.5459    0.735   0.8566     O
O21     0.5261   0.6521   0.8894     O
C22     0.3468   0.6897   0.7257     C
C23     0.3856    0.692   0.7649     C
C24     0.4293   0.6678   0.7589     C
H25     0.4345   0.6481   0.7302     H
C26     0.4664   0.6718   0.7944     C
H27      0.497   0.6551   0.7889     H
C28     0.4607   0.6988   0.8369     C
C29     0.4152   0.7201   0.8414     C
H30     0.4097    0.739   0.8707     H
C31     0.3779   0.7175   0.8097     C
H32     0.3469   0.7325   0.8169     H
S33     0.2976  0.49186  0.88134     S
O34     0.2768   0.5133   0.9246     O
O35      0.265   0.4541   0.8566     O
O36     0.3479   0.4739   0.8894     O
C37     0.3103   0.6532   0.7257     C
C38      0.308   0.6144   0.7649     C
C39     0.3322   0.5707   0.7589     C
H40     0.3519   0.5655   0.7302     H
C41     0.3282   0.5336   0.7944     C
H42     0.3449    0.503   0.7889     H
C43     0.3012   0.5393   0.8369     C
C44     0.2799   0.5848   0.8414     C
H45      0.261   0.5903   0.8707     H
C46     0.2825   0.6221   0.8097     C
H47     0.2675   0.6531   0.8169     H
S48    0.50814  0.88134   0.7024     S
O49     0.4867   0.9246   0.7232     O
O50     0.5459   0.8566    0.735     O
O51     0.5261   0.8894   0.6521     O
C52     0.3468   0.7257   0.6897     C
C53     0.3856   0.7649    0.692     C
C54     0.4293   0.7589   0.6678     C
H55     0.4345   0.7302   0.6481     H
C56     0.4664   0.7944   0.6718     C
H57      0.497   0.7889   0.6551     H
C58     0.4607   0.8369   0.6988     C
C59     0.4152   0.8414   0.7201     C
H60     0.4097   0.8707    0.739     H
C61     0.3779   0.8097   0.7175     C
H62     0.3469   0.8169   0.7325     H
S63    0.11866  0.49186   0.7024     S
O64     0.0754   0.5133   0.7232     O
O65     0.1434   0.4541    0.735     O
O66     0.1106   0.4739   0.6521     O
C67     0.2743   0.6532   0.6897     C
C68     0.2351   0.6144    0.692     C
C69     0.2411   0.5707   0.6678     C
H70     0.2698   0.5655   0.6481     H
C71     0.2056   0.5336   0.6718     C
H72     0.2111    0.503   0.6551     H
C73     0.1631   0.5393   0.6988     C
C74     0.1586   0.5848   0.7201     C
H75     0.1293   0.5903    0.739     H
C76     0.1903   0.6221   0.7175     C
H77     0.1831   0.6531   0.7325     H
S78     0.2976  0.88134  0.49186     S
O79     0.2768   0.9246   0.5133     O
O80      0.265   0.8566   0.4541     O
O81     0.3479   0.8894   0.4739     O
C82     0.3103   0.7257   0.6532     C
C83      0.308   0.7649   0.6144     C
C84     0.3322   0.7589   0.5707     C
H85     0.3519   0.7302   0.5655     H
C86     0.3282   0.7944   0.5336     C
H87     0.3449   0.7889    0.503     H
C88     0.3012   0.8369   0.5393     C
C89     0.2799   0.8414   0.5848     C
H90      0.261   0.8707   0.5903     H
C91     0.2825   0.8097   0.6221     C
H92     0.2675   0.8169   0.6531     H
S93    0.11866   0.7024  0.49186     S
O94     0.0754   0.7232   0.5133     O
O95     0.1434    0.735   0.4541     O
O96     0.1106   0.6521   0.4739     O
C97     0.2743   0.6897   0.6532     C
C98     0.2351    0.692   0.6144     C
C99     0.2411   0.6678   0.5707     C
H100    0.2698   0.6481   0.5655     H
C101    0.2056   0.6718   0.5336     C
H102    0.2111   0.6551    0.503     H
C103    0.1631   0.6988   0.5393     C
C104    0.1586   0.7201   0.5848     C
H105    0.1293    0.739   0.5903     H
C106    0.1903   0.7175   0.6221     C
H107    0.1831   0.7325   0.6531     H
Na108      0.0      0.5     0.75    Na
Na109     0.25      0.0      0.5    Na
Na110      0.5      0.0     0.75    Na
Na111      0.0     0.75      0.5    Na
Na112      0.5     0.75      0.0    Na
Na113     0.75      0.5      0.0    Na
S114    0.7024  0.49186  0.11866     S
O115    0.7232   0.5133   0.0754     O
O116     0.735   0.4541   0.1434     O
O117    0.6521   0.4739   0.1106     O
C118    0.6897   0.6532   0.2743     C
C119     0.692   0.6144   0.2351     C
C120    0.6678   0.5707   0.2411     C
H121    0.6481   0.5655   0.2698     H
C122    0.6718   0.5336   0.2056     C
H123    0.6551    0.503   0.2111     H
C124    0.6988   0.5393   0.1631     C
C125    0.7201   0.5848   0.1586     C
H126     0.739   0.5903   0.1293     H
C127    0.7175   0.6221   0.1903     C
H128    0.7325   0.6531   0.1831     H
S129   0.49186   0.7024  0.11866     S
O130    0.5133   0.7232   0.0754     O
O131    0.4541    0.735   0.1434     O
O132    0.4739   0.6521   0.1106     O
C133    0.6532   0.6897   0.2743     C
C134    0.6144    0.692   0.2351     C
C135    0.5707   0.6678   0.2411     C
H136    0.5655   0.6481   0.2698     H
C137    0.5336   0.6718   0.2056     C
H138     0.503   0.6551   0.2111     H
C139    0.5393   0.6988   0.1631     C
C140    0.5848   0.7201   0.1586     C
H141    0.5903    0.739   0.1293     H
C142    0.6221   0.7175   0.1903     C
H143    0.6531   0.7325   0.1831     H
S144   0.88134  0.49186   0.2976     S
O145    0.9246   0.5133   0.2768     O
O146    0.8566   0.4541    0.265     O
O147    0.8894   0.4739   0.3479     O
C148    0.7257   0.6532   0.3103     C
C149    0.7649   0.6144    0.308     C
C150    0.7589   0.5707   0.3322     C
H151    0.7302   0.5655   0.3519     H
C152    0.7944   0.5336   0.3282     C
H153    0.7889    0.503   0.3449     H
C154    0.8369   0.5393   0.3012     C
C155    0.8414   0.5848   0.2799     C
H156    0.8707   0.5903    0.261     H
C157    0.8097   0.6221   0.2825     C
H158    0.8169   0.6531   0.2675     H
S159   0.49186  0.88134   0.2976     S
O160    0.5133   0.9246   0.2768     O
O161    0.4541   0.8566    0.265     O
O162    0.4739   0.8894   0.3479     O
C163    0.6532   0.7257   0.3103     C
C164    0.6144   0.7649    0.308     C
C165    0.5707   0.7589   0.3322     C
H166    0.5655   0.7302   0.3519     H
C167    0.5336   0.7944   0.3282     C
H168     0.503   0.7889   0.3449     H
C169    0.5393   0.8369   0.3012     C
C170    0.5848   0.8414   0.2799     C
H171    0.5903   0.8707    0.261     H
C172    0.6221   0.8097   0.2825     C
H173    0.6531   0.8169   0.2675     H
S174   0.88134   0.7024  0.50814     S
O175    0.9246   0.7232   0.4867     O
O176    0.8566    0.735   0.5459     O
O177    0.8894   0.6521   0.5261     O
C178    0.7257   0.6897   0.3468     C
C179    0.7649    0.692   0.3856     C
C180    0.7589   0.6678   0.4293     C
H181    0.7302   0.6481   0.4345     H
C182    0.7944   0.6718   0.4664     C
H183    0.7889   0.6551    0.497     H
C184    0.8369   0.6988   0.4607     C
C185    0.8414   0.7201   0.4152     C
H186    0.8707    0.739   0.4097     H
C187    0.8097   0.7175   0.3779     C
H188    0.8169   0.7325   0.3469     H
S189    0.7024  0.88134  0.50814     S
O190    0.7232   0.9246   0.4867     O
O191     0.735   0.8566   0.5459     O
O192    0.6521   0.8894   0.5261     O
C193    0.6897   0.7257   0.3468     C
C194     0.692   0.7649   0.3856     C
C195    0.6678   0.7589   0.4293     C
H196    0.6481   0.7302   0.4345     H
C197    0.6718   0.7944   0.4664     C
H198    0.6551   0.7889    0.497     H
C199    0.6988   0.8369   0.4607     C
C200    0.7201   0.8414   0.4152     C
H201     0.739   0.8707   0.4097     H
C202    0.7175   0.8097   0.3779     C
H203    0.7325   0.8169   0.3469     H
Na204      0.0      0.5     0.25    Na
Na205     0.75      0.0      0.5    Na
Na206      0.5      0.0     0.25    Na
O207    0.7232   0.4867   0.9246     O
O208    0.4246   0.7768   0.0133     O
O209    0.5754   0.7768   0.9867     O
O210    0.7768   0.4246   0.0133     O
O211    0.7768   0.5754   0.9867     O
loop_
_geom_bond_atom_site_label_1
_geom_bond_atom_site_label_2
_geom_bond_distance
_geom_bond_site_symmetry_2
_ccdc_geom_bond_type
H7    O1     2.00235       .     S
O1    H7     2.00235       .     S
H12   O2     2.00235       .     S
O2    H12    2.00235       .     S
N0    O1     1.22577       .     S
O1    N0     1.22577       .     S
N0    O2     1.22577       .     S
O2    N0     1.22577       .     S
N0    O3     1.22578       .     S
O3    N0     1.22578       .     S
C4    N5     1.36534       .     S
N5    C4     1.36534       .     S
C4    N8     1.31460       .     S
N8    C4     1.31460       .     S
C4    N10    1.36534       .     S
N10   C4     1.36534       .     S
N5    H6     0.88032       .     S
H6    N5     0.88032       .     S
N5    H7     0.88106       .     S
H7    N5     0.88106       .     S
N8    H9     0.87930       .     S
H9    N8     0.87930       .     S
N8    H13    0.87930       .     S
H13   N8     0.87930       .     S
N10   H11    0.88032       .     S
H11   N10    0.88032       .     S
N10   H12    0.88106       .     S
H12   N10    0.88106       .     S
O14   Na15   2.18637   1_556     S
Na15  O14    2.18637   1_554     S
Na15  O16    2.18637       .     S
O16   Na15   2.18637       .     S
Na15  O17    2.18637       .     S
O17   Na15   2.18637       .     S
Na15  O34    2.18637   1_554     S
O34   Na15   2.18637   1_556     S
S18   O19    1.41693       .     S
O19   S18    1.41693       .     S
S18   O20    1.50081       .     S
O20   S18    1.50081       .     S
S18   O21    1.45584       .     S
O21   S18    1.45584       .     S
S18   C28    1.75470       .     S
C28   S18    1.75470       .     S
O19   Na112  2.18637   1_556     S
Na112 O19    2.18637   1_554     S
C22   C23    1.48786       .     S
C23   C22    1.48786       .     S
C22   C37    1.39126       .     S
C37   C22    1.39126       .     S
C22   C52    1.37220       .     S
C52   C22    1.37220       .     S
C23   C24    1.35605       .     S
C24   C23    1.35605       .     S
C23   C31    1.40479       .     S
C31   C23    1.40479       .     S
C24   H25    0.94865       .     S
H25   C24    0.94865       .     S
C24   C26    1.38817       .     S
C26   C24    1.38817       .     S
C26   H27    0.95120       .     S
H27   C26    0.95120       .     S
C26   C28    1.36577       .     S
C28   C26    1.36577       .     S
C28   C29    1.35949       .     S
C29   C28    1.35949       .     S
C29   H30    0.95137       .     S
H30   C29    0.95137       .     S
C29   C31    1.32121       .     S
C31   C29    1.32121       .     S
C31   H32    0.94827       .     S
H32   C31    0.94827       .     S
S33   O34    1.41693       .     S
O34   S33    1.41693       .     S
S33   O35    1.50081       .     S
O35   S33    1.50081       .     S
S33   O36    1.45584       .     S
O36   S33    1.45584       .     S
S33   C43    1.75470       .     S
C43   S33    1.75470       .     S
C37   C38    1.48786       .     S
C38   C37    1.48786       .     S
C37   C67    1.37220       .     S
C67   C37    1.37220       .     S
C38   C39    1.35605       .     S
C39   C38    1.35605       .     S
C38   C46    1.40479       .     S
C46   C38    1.40479       .     S
C39   H40    0.94865       .     S
H40   C39    0.94865       .     S
C39   C41    1.38817       .     S
C41   C39    1.38817       .     S
C41   H42    0.95120       .     S
H42   C41    0.95120       .     S
C41   C43    1.36577       .     S
C43   C41    1.36577       .     S
C43   C44    1.35949       .     S
C44   C43    1.35949       .     S
C44   H45    0.95137       .     S
H45   C44    0.95137       .     S
C44   C46    1.32121       .     S
C46   C44    1.32121       .     S
C46   H47    0.94827       .     S
H47   C46    0.94827       .     S
S48   O49    1.41693       .     S
O49   S48    1.41693       .     S
S48   O50    1.50081       .     S
O50   S48    1.50081       .     S
S48   O51    1.45584       .     S
O51   S48    1.45584       .     S
S48   C58    1.75470       .     S
C58   S48    1.75470       .     S
O49   Na110  2.18637   1_565     S
Na110 O49    2.18637   1_545     S
C52   C53    1.48786       .     S
C53   C52    1.48786       .     S
C52   C82    1.39126       .     S
C82   C52    1.39126       .     S
C53   C54    1.35605       .     S
C54   C53    1.35605       .     S
C53   C61    1.40479       .     S
C61   C53    1.40479       .     S
C54   H55    0.94865       .     S
H55   C54    0.94865       .     S
C54   C56    1.38817       .     S
C56   C54    1.38817       .     S
C56   H57    0.95120       .     S
H57   C56    0.95120       .     S
C56   C58    1.36577       .     S
C58   C56    1.36577       .     S
C58   C59    1.35949       .     S
C59   C58    1.35949       .     S
C59   H60    0.95137       .     S
H60   C59    0.95137       .     S
C59   C61    1.32121       .     S
C61   C59    1.32121       .     S
C61   H62    0.94827       .     S
H62   C61    0.94827       .     S
S63   O64    1.41693       .     S
O64   S63    1.41693       .     S
S63   O65    1.50081       .     S
O65   S63    1.50081       .     S
S63   O66    1.45584       .     S
O66   S63    1.45584       .     S
S63   C73    1.75470       .     S
C73   S63    1.75470       .     S
O64   Na108  2.18637       .     S
Na108 O64    2.18637       .     S
C67   C68    1.48786       .     S
C68   C67    1.48786       .     S
C67   C97    1.39126       .     S
C97   C67    1.39126       .     S
C68   C69    1.35605       .     S
C69   C68    1.35605       .     S
C68   C76    1.40479       .     S
C76   C68    1.40479       .     S
C69   H70    0.94865       .     S
H70   C69    0.94865       .     S
C69   C71    1.38817       .     S
C71   C69    1.38817       .     S
C71   H72    0.95120       .     S
H72   C71    0.95120       .     S
C71   C73    1.36577       .     S
C73   C71    1.36577       .     S
C73   C74    1.35949       .     S
C74   C73    1.35949       .     S
C74   H75    0.95137       .     S
H75   C74    0.95137       .     S
C74   C76    1.32121       .     S
C76   C74    1.32121       .     S
C76   H77    0.94827       .     S
H77   C76    0.94827       .     S
S78   O79    1.41693       .     S
O79   S78    1.41693       .     S
S78   O80    1.50081       .     S
O80   S78    1.50081       .     S
S78   O81    1.45584       .     S
O81   S78    1.45584       .     S
S78   C88    1.75470       .     S
C88   S78    1.75470       .     S
O79   Na109  2.18637   1_565     S
Na109 O79    2.18637   1_545     S
C82   C83    1.48786       .     S
C83   C82    1.48786       .     S
C82   C97    1.37220       .     S
C97   C82    1.37220       .     S
C83   C84    1.35605       .     S
C84   C83    1.35605       .     S
C83   C91    1.40479       .     S
C91   C83    1.40479       .     S
C84   H85    0.94865       .     S
H85   C84    0.94865       .     S
C84   C86    1.38817       .     S
C86   C84    1.38817       .     S
C86   H87    0.95120       .     S
H87   C86    0.95120       .     S
C86   C88    1.36577       .     S
C88   C86    1.36577       .     S
C88   C89    1.35949       .     S
C89   C88    1.35949       .     S
C89   H90    0.95137       .     S
H90   C89    0.95137       .     S
C89   C91    1.32121       .     S
C91   C89    1.32121       .     S
C91   H92    0.94827       .     S
H92   C91    0.94827       .     S
S93   O94    1.41693       .     S
O94   S93    1.41693       .     S
S93   O95    1.50081       .     S
O95   S93    1.50081       .     S
S93   O96    1.45584       .     S
O96   S93    1.45584       .     S
S93   C103   1.75470       .     S
C103  S93    1.75470       .     S
O94   Na111  2.18637       .     S
Na111 O94    2.18637       .     S
C97   C98    1.48786       .     S
C98   C97    1.48786       .     S
C98   C99    1.35605       .     S
C99   C98    1.35605       .     S
C98   C106   1.40479       .     S
C106  C98    1.40479       .     S
C99   H100   0.94865       .     S
H100  C99    0.94865       .     S
C99   C101   1.38817       .     S
C101  C99    1.38817       .     S
C101  H102   0.95120       .     S
H102  C101   0.95120       .     S
C101  C103   1.36577       .     S
C103  C101   1.36577       .     S
C103  C104   1.35949       .     S
C104  C103   1.35949       .     S
C104  H105   0.95137       .     S
H105  C104   0.95137       .     S
C104  C106   1.32121       .     S
C106  C104   1.32121       .     S
C106  H107   0.94827       .     S
H107  C106   0.94827       .     S
Na111 O175   2.18637   1_455     S
O175  Na111  2.18637   1_655     S
Na112 O130   2.18637       .     S
O130  Na112  2.18637       .     S
Na112 O208   2.18637       .     S
O208  Na112  2.18637       .     S
Na112 O209   2.18637   1_554     S
O209  Na112  2.18637   1_556     S
Na113 O115   2.18637       .     S
O115  Na113  2.18637       .     S
Na113 O207   2.18637   1_554     S
O207  Na113  2.18637   1_556     S
Na113 O210   2.18637       .     S
O210  Na113  2.18637       .     S
Na113 O211   2.18637   1_554     S
O211  Na113  2.18637   1_556     S
S114  O115   1.41693       .     S
O115  S114   1.41693       .     S
S114  O116   1.50081       .     S
O116  S114   1.50081       .     S
S114  O117   1.45584       .     S
O117  S114   1.45584       .     S
S114  C124   1.75470       .     S
C124  S114   1.75470       .     S
C118  C119   1.48786       .     S
C119  C118   1.48786       .     S
C118  C133   1.39126       .     S
C133  C118   1.39126       .     S
C118  C148   1.37220       .     S
C148  C118   1.37220       .     S
C119  C120   1.35605       .     S
C120  C119   1.35605       .     S
C119  C127   1.40479       .     S
C127  C119   1.40479       .     S
C120  H121   0.94865       .     S
H121  C120   0.94865       .     S
C120  C122   1.38817       .     S
C122  C120   1.38817       .     S
C122  H123   0.95120       .     S
H123  C122   0.95120       .     S
C122  C124   1.36577       .     S
C124  C122   1.36577       .     S
C124  C125   1.35949       .     S
C125  C124   1.35949       .     S
C125  H126   0.95137       .     S
H126  C125   0.95137       .     S
C125  C127   1.32121       .     S
C127  C125   1.32121       .     S
C127  H128   0.94827       .     S
H128  C127   0.94827       .     S
S129  O130   1.41693       .     S
O130  S129   1.41693       .     S
S129  O131   1.50081       .     S
O131  S129   1.50081       .     S
S129  O132   1.45584       .     S
O132  S129   1.45584       .     S
S129  C139   1.75470       .     S
C139  S129   1.75470       .     S
C133  C134   1.48786       .     S
C134  C133   1.48786       .     S
C133  C163   1.37220       .     S
C163  C133   1.37220       .     S
C134  C135   1.35605       .     S
C135  C134   1.35605       .     S
C134  C142   1.40479       .     S
C142  C134   1.40479       .     S
C135  H136   0.94865       .     S
H136  C135   0.94865       .     S
C135  C137   1.38817       .     S
C137  C135   1.38817       .     S
C137  H138   0.95120       .     S
H138  C137   0.95120       .     S
C137  C139   1.36577       .     S
C139  C137   1.36577       .     S
C139  C140   1.35949       .     S
C140  C139   1.35949       .     S
C140  H141   0.95137       .     S
H141  C140   0.95137       .     S
C140  C142   1.32121       .     S
C142  C140   1.32121       .     S
C142  H143   0.94827       .     S
H143  C142   0.94827       .     S
S144  O145   1.41693       .     S
O145  S144   1.41693       .     S
S144  O146   1.50081       .     S
O146  S144   1.50081       .     S
S144  O147   1.45584       .     S
O147  S144   1.45584       .     S
S144  C154   1.75470       .     S
C154  S144   1.75470       .     S
O145  Na204  2.18637   1_655     S
Na204 O145   2.18637   1_455     S
C148  C149   1.48786       .     S
C149  C148   1.48786       .     S
C148  C178   1.39126       .     S
C178  C148   1.39126       .     S
C149  C150   1.35605       .     S
C150  C149   1.35605       .     S
C149  C157   1.40479       .     S
C157  C149   1.40479       .     S
C150  H151   0.94865       .     S
H151  C150   0.94865       .     S
C150  C152   1.38817       .     S
C152  C150   1.38817       .     S
C152  H153   0.95120       .     S
H153  C152   0.95120       .     S
C152  C154   1.36577       .     S
C154  C152   1.36577       .     S
C154  C155   1.35949       .     S
C155  C154   1.35949       .     S
C155  H156   0.95137       .     S
H156  C155   0.95137       .     S
C155  C157   1.32121       .     S
C157  C155   1.32121       .     S
C157  H158   0.94827       .     S
H158  C157   0.94827       .     S
S159  O160   1.41693       .     S
O160  S159   1.41693       .     S
S159  O161   1.50081       .     S
O161  S159   1.50081       .     S
S159  O162   1.45584       .     S
O162  S159   1.45584       .     S
S159  C169   1.75470       .     S
C169  S159   1.75470       .     S
O160  Na206  2.18637   1_565     S
Na206 O160   2.18637   1_545     S
C163  C164   1.48786       .     S
C164  C163   1.48786       .     S
C163  C193   1.39126       .     S
C193  C163   1.39126       .     S
C164  C165   1.35605       .     S
C165  C164   1.35605       .     S
C164  C172   1.40479       .     S
C172  C164   1.40479       .     S
C165  H166   0.94865       .     S
H166  C165   0.94865       .     S
C165  C167   1.38817       .     S
C167  C165   1.38817       .     S
C167  H168   0.95120       .     S
H168  C167   0.95120       .     S
C167  C169   1.36577       .     S
C169  C167   1.36577       .     S
C169  C170   1.35949       .     S
C170  C169   1.35949       .     S
C170  H171   0.95137       .     S
H171  C170   0.95137       .     S
C170  C172   1.32121       .     S
C172  C170   1.32121       .     S
C172  H173   0.94827       .     S
H173  C172   0.94827       .     S
S174  O175   1.41693       .     S
O175  S174   1.41693       .     S
S174  O176   1.50081       .     S
O176  S174   1.50081       .     S
S174  O177   1.45584       .     S
O177  S174   1.45584       .     S
S174  C184   1.75470       .     S
C184  S174   1.75470       .     S
C178  C179   1.48786       .     S
C179  C178   1.48786       .     S
C178  C193   1.37220       .     S
C193  C178   1.37220       .     S
C179  C180   1.35605       .     S
C180  C179   1.35605       .     S
C179  C187   1.40479       .     S
C187  C179   1.40479       .     S
C180  H181   0.94865       .     S
H181  C180   0.94865       .     S
C180  C182   1.38816       .     S
C182  C180   1.38816       .     S
C182  H183   0.95120       .     S
H183  C182   0.95120       .     S
C182  C184   1.36577       .     S
C184  C182   1.36577       .     S
C184  C185   1.35949       .     S
C185  C184   1.35949       .     S
C185  H186   0.95137       .     S
H186  C185   0.95137       .     S
C185  C187   1.32121       .     S
C187  C185   1.32121       .     S
C187  H188   0.94827       .     S
H188  C187   0.94827       .     S
S189  O190   1.41693       .     S
O190  S189   1.41693       .     S
S189  O191   1.50081       .     S
O191  S189   1.50081       .     S
S189  O192   1.45584       .     S
O192  S189   1.45584       .     S
S189  C199   1.75470       .     S
C199  S189   1.75470       .     S
O190  Na205  2.18637   1_565     S
Na205 O190   2.18637   1_545     S
C193  C194   1.48786       .     S
C194  C193   1.48786       .     S
C194  C195   1.35605       .     S
C195  C194   1.35605       .     S
C194  C202   1.40479       .     S
C202  C194   1.40479       .     S
C195  H196   0.94865       .     S
H196  C195   0.94865       .     S
C195  C197   1.38816       .     S
C197  C195   1.38816       .     S
C197  H198   0.95120       .     S
H198  C197   0.95120       .     S
C197  C199   1.36577       .     S
C199  C197   1.36577       .     S
C199  C200   1.35949       .     S
C200  C199   1.35949       .     S
C200  H201   0.95137       .     S
H201  C200   0.95137       .     S
C200  C202   1.32121       .     S
C202  C200   1.32121       .     S
C202  H203   0.94827       .     S
H203  C202   0.94827       .     S
O1    H7     2.00235       .     S
H7    O1     2.00235       .     S
O2    H12    2.00235       .     S
H12   O2     2.00235       .     S
O1    N0     1.22577       .     S
N0    O1     1.22577       .     S
O2    N0     1.22577       .     S
N0    O2     1.22577       .     S
O3    N0     1.22578       .     S
N0    O3     1.22578       .     S
N5    C4     1.36534       .     S
C4    N5     1.36534       .     S
N8    C4     1.31460       .     S
C4    N8     1.31460       .     S
N10   C4     1.36534       .     S
C4    N10    1.36534       .     S
H6    N5     0.88032       .     S
N5    H6     0.88032       .     S
H7    N5     0.88106       .     S
N5    H7     0.88106       .     S
H9    N8     0.87930       .     S
N8    H9     0.87930       .     S
H13   N8     0.87930       .     S
N8    H13    0.87930       .     S
H11   N10    0.88032       .     S
N10   H11    0.88032       .     S
H12   N10    0.88106       .     S
N10   H12    0.88106       .     S
Na15  O14    2.18637   1_554     S
O14   Na15   2.18637   1_556     S
O16   Na15   2.18637       .     S
Na15  O16    2.18637       .     S
O17   Na15   2.18637       .     S
Na15  O17    2.18637       .     S
O34   Na15   2.18637   1_556     S
Na15  O34    2.18637   1_554     S
O19   S18    1.41693       .     S
S18   O19    1.41693       .     S
O20   S18    1.50081       .     S
S18   O20    1.50081       .     S
O21   S18    1.45584       .     S
S18   O21    1.45584       .     S
C28   S18    1.75470       .     S
S18   C28    1.75470       .     S
Na112 O19    2.18637   1_554     S
O19   Na112  2.18637   1_556     S
C23   C22    1.48786       .     S
C22   C23    1.48786       .     S
C37   C22    1.39126       .     S
C22   C37    1.39126       .     S
C52   C22    1.37220       .     S
C22   C52    1.37220       .     S
C24   C23    1.35605       .     S
C23   C24    1.35605       .     S
C31   C23    1.40479       .     S
C23   C31    1.40479       .     S
H25   C24    0.94865       .     S
C24   H25    0.94865       .     S
C26   C24    1.38817       .     S
C24   C26    1.38817       .     S
H27   C26    0.95120       .     S
C26   H27    0.95120       .     S
C28   C26    1.36577       .     S
C26   C28    1.36577       .     S
C29   C28    1.35949       .     S
C28   C29    1.35949       .     S
H30   C29    0.95137       .     S
C29   H30    0.95137       .     S
C31   C29    1.32121       .     S
C29   C31    1.32121       .     S
H32   C31    0.94827       .     S
C31   H32    0.94827       .     S
O34   S33    1.41693       .     S
S33   O34    1.41693       .     S
O35   S33    1.50081       .     S
S33   O35    1.50081       .     S
O36   S33    1.45584       .     S
S33   O36    1.45584       .     S
C43   S33    1.75470       .     S
S33   C43    1.75470       .     S
C38   C37    1.48786       .     S
C37   C38    1.48786       .     S
C67   C37    1.37220       .     S
C37   C67    1.37220       .     S
C39   C38    1.35605       .     S
C38   C39    1.35605       .     S
C46   C38    1.40479       .     S
C38   C46    1.40479       .     S
H40   C39    0.94865       .     S
C39   H40    0.94865       .     S
C41   C39    1.38817       .     S
C39   C41    1.38817       .     S
H42   C41    0.95120       .     S
C41   H42    0.95120       .     S
C43   C41    1.36577       .     S
C41   C43    1.36577       .     S
C44   C43    1.35949       .     S
C43   C44    1.35949       .     S
H45   C44    0.95137       .     S
C44   H45    0.95137       .     S
C46   C44    1.32121       .     S
C44   C46    1.32121       .     S
H47   C46    0.94827       .     S
C46   H47    0.94827       .     S
O49   S48    1.41693       .     S
S48   O49    1.41693       .     S
O50   S48    1.50081       .     S
S48   O50    1.50081       .     S
O51   S48    1.45584       .     S
S48   O51    1.45584       .     S
C58   S48    1.75470       .     S
S48   C58    1.75470       .     S
Na110 O49    2.18637   1_545     S
O49   Na110  2.18637   1_565     S
C53   C52    1.48786       .     S
C52   C53    1.48786       .     S
C82   C52    1.39126       .     S
C52   C82    1.39126       .     S
C54   C53    1.35605       .     S
C53   C54    1.35605       .     S
C61   C53    1.40479       .     S
C53   C61    1.40479       .     S
H55   C54    0.94865       .     S
C54   H55    0.94865       .     S
C56   C54    1.38817       .     S
C54   C56    1.38817       .     S
H57   C56    0.95120       .     S
C56   H57    0.95120       .     S
C58   C56    1.36577       .     S
C56   C58    1.36577       .     S
C59   C58    1.35949       .     S
C58   C59    1.35949       .     S
H60   C59    0.95137       .     S
C59   H60    0.95137       .     S
C61   C59    1.32121       .     S
C59   C61    1.32121       .     S
H62   C61    0.94827       .     S
C61   H62    0.94827       .     S
O64   S63    1.41693       .     S
S63   O64    1.41693       .     S
O65   S63    1.50081       .     S
S63   O65    1.50081       .     S
O66   S63    1.45584       .     S
S63   O66    1.45584       .     S
C73   S63    1.75470       .     S
S63   C73    1.75470       .     S
Na108 O64    2.18637       .     S
O64   Na108  2.18637       .     S
C68   C67    1.48786       .     S
C67   C68    1.48786       .     S
C97   C67    1.39126       .     S
C67   C97    1.39126       .     S
C69   C68    1.35605       .     S
C68   C69    1.35605       .     S
C76   C68    1.40479       .     S
C68   C76    1.40479       .     S
H70   C69    0.94865       .     S
C69   H70    0.94865       .     S
C71   C69    1.38817       .     S
C69   C71    1.38817       .     S
H72   C71    0.95120       .     S
C71   H72    0.95120       .     S
C73   C71    1.36577       .     S
C71   C73    1.36577       .     S
C74   C73    1.35949       .     S
C73   C74    1.35949       .     S
H75   C74    0.95137       .     S
C74   H75    0.95137       .     S
C76   C74    1.32121       .     S
C74   C76    1.32121       .     S
H77   C76    0.94827       .     S
C76   H77    0.94827       .     S
O79   S78    1.41693       .     S
S78   O79    1.41693       .     S
O80   S78    1.50081       .     S
S78   O80    1.50081       .     S
O81   S78    1.45584       .     S
S78   O81    1.45584       .     S
C88   S78    1.75470       .     S
S78   C88    1.75470       .     S
Na109 O79    2.18637   1_545     S
O79   Na109  2.18637   1_565     S
C83   C82    1.48786       .     S
C82   C83    1.48786       .     S
C97   C82    1.37220       .     S
C82   C97    1.37220       .     S
C84   C83    1.35605       .     S
C83   C84    1.35605       .     S
C91   C83    1.40479       .     S
C83   C91    1.40479       .     S
H85   C84    0.94865       .     S
C84   H85    0.94865       .     S
C86   C84    1.38817       .     S
C84   C86    1.38817       .     S
H87   C86    0.95120       .     S
C86   H87    0.95120       .     S
C88   C86    1.36577       .     S
C86   C88    1.36577       .     S
C89   C88    1.35949       .     S
C88   C89    1.35949       .     S
H90   C89    0.95137       .     S
C89   H90    0.95137       .     S
C91   C89    1.32121       .     S
C89   C91    1.32121       .     S
H92   C91    0.94827       .     S
C91   H92    0.94827       .     S
O94   S93    1.41693       .     S
S93   O94    1.41693       .     S
O95   S93    1.50081       .     S
S93   O95    1.50081       .     S
O96   S93    1.45584       .     S
S93   O96    1.45584       .     S
C103  S93    1.75470       .     S
S93   C103   1.75470       .     S
Na111 O94    2.18637       .     S
O94   Na111  2.18637       .     S
C98   C97    1.48786       .     S
C97   C98    1.48786       .     S
C99   C98    1.35605       .     S
C98   C99    1.35605       .     S
C106  C98    1.40479       .     S
C98   C106   1.40479       .     S
H100  C99    0.94865       .     S
C99   H100   0.94865       .     S
C101  C99    1.38817       .     S
C99   C101   1.38817       .     S
H102  C101   0.95120       .     S
C101  H102   0.95120       .     S
C103  C101   1.36577       .     S
C101  C103   1.36577       .     S
C104  C103   1.35949       .     S
C103  C104   1.35949       .     S
H105  C104   0.95137       .     S
C104  H105   0.95137       .     S
C106  C104   1.32121       .     S
C104  C106   1.32121       .     S
H107  C106   0.94827       .     S
C106  H107   0.94827       .     S
O175  Na111  2.18637   1_655     S
Na111 O175   2.18637   1_455     S
O130  Na112  2.18637       .     S
Na112 O130   2.18637       .     S
O208  Na112  2.18637       .     S
Na112 O208   2.18637       .     S
O209  Na112  2.18637   1_556     S
Na112 O209   2.18637   1_554     S
O115  Na113  2.18637       .     S
Na113 O115   2.18637       .     S
O207  Na113  2.18637   1_556     S
Na113 O207   2.18637   1_554     S
O210  Na113  2.18637       .     S
Na113 O210   2.18637       .     S
O211  Na113  2.18637   1_556     S
Na113 O211   2.18637   1_554     S
O115  S114   1.41693       .     S
S114  O115   1.41693       .     S
O116  S114   1.50081       .     S
S114  O116   1.50081       .     S
O117  S114   1.45584       .     S
S114  O117   1.45584       .     S
C124  S114   1.75470       .     S
S114  C124   1.75470       .     S
C119  C118   1.48786       .     S
C118  C119   1.48786       .     S
C133  C118   1.39126       .     S
C118  C133   1.39126       .     S
C148  C118   1.37220       .     S
C118  C148   1.37220       .     S
C120  C119   1.35605       .     S
C119  C120   1.35605       .     S
C127  C119   1.40479       .     S
C119  C127   1.40479       .     S
H121  C120   0.94865       .     S
C120  H121   0.94865       .     S
C122  C120   1.38817       .     S
C120  C122   1.38817       .     S
H123  C122   0.95120       .     S
C122  H123   0.95120       .     S
C124  C122   1.36577       .     S
C122  C124   1.36577       .     S
C125  C124   1.35949       .     S
C124  C125   1.35949       .     S
H126  C125   0.95137       .     S
C125  H126   0.95137       .     S
C127  C125   1.32121       .     S
C125  C127   1.32121       .     S
H128  C127   0.94827       .     S
C127  H128   0.94827       .     S
O130  S129   1.41693       .     S
S129  O130   1.41693       .     S
O131  S129   1.50081       .     S
S129  O131   1.50081       .     S
O132  S129   1.45584       .     S
S129  O132   1.45584       .     S
C139  S129   1.75470       .     S
S129  C139   1.75470       .     S
C134  C133   1.48786       .     S
C133  C134   1.48786       .     S
C163  C133   1.37220       .     S
C133  C163   1.37220       .     S
C135  C134   1.35605       .     S
C134  C135   1.35605       .     S
C142  C134   1.40479       .     S
C134  C142   1.40479       .     S
H136  C135   0.94865       .     S
C135  H136   0.94865       .     S
C137  C135   1.38817       .     S
C135  C137   1.38817       .     S
H138  C137   0.95120       .     S
C137  H138   0.95120       .     S
C139  C137   1.36577       .     S
C137  C139   1.36577       .     S
C140  C139   1.35949       .     S
C139  C140   1.35949       .     S
H141  C140   0.95137       .     S
C140  H141   0.95137       .     S
C142  C140   1.32121       .     S
C140  C142   1.32121       .     S
H143  C142   0.94827       .     S
C142  H143   0.94827       .     S
O145  S144   1.41693       .     S
S144  O145   1.41693       .     S
O146  S144   1.50081       .     S
S144  O146   1.50081       .     S
O147  S144   1.45584       .     S
S144  O147   1.45584       .     S
C154  S144   1.75470       .     S
S144  C154   1.75470       .     S
Na204 O145   2.18637   1_455     S
O145  Na204  2.18637   1_655     S
C149  C148   1.48786       .     S
C148  C149   1.48786       .     S
C178  C148   1.39126       .     S
C148  C178   1.39126       .     S
C150  C149   1.35605       .     S
C149  C150   1.35605       .     S
C157  C149   1.40479       .     S
C149  C157   1.40479       .     S
H151  C150   0.94865       .     S
C150  H151   0.94865       .     S
C152  C150   1.38817       .     S
C150  C152   1.38817       .     S
H153  C152   0.95120       .     S
C152  H153   0.95120       .     S
C154  C152   1.36577       .     S
C152  C154   1.36577       .     S
C155  C154   1.35949       .     S
C154  C155   1.35949       .     S
H156  C155   0.95137       .     S
C155  H156   0.95137       .     S
C157  C155   1.32121       .     S
C155  C157   1.32121       .     S
H158  C157   0.94827       .     S
C157  H158   0.94827       .     S
O160  S159   1.41693       .     S
S159  O160   1.41693       .     S
O161  S159   1.50081       .     S
S159  O161   1.50081       .     S
O162  S159   1.45584       .     S
S159  O162   1.45584       .     S
C169  S159   1.75470       .     S
S159  C169   1.75470       .     S
Na206 O160   2.18637   1_545     S
O160  Na206  2.18637   1_565     S
C164  C163   1.48786       .     S
C163  C164   1.48786       .     S
C193  C163   1.39126       .     S
C163  C193   1.39126       .     S
C165  C164   1.35605       .     S
C164  C165   1.35605       .     S
C172  C164   1.40479       .     S
C164  C172   1.40479       .     S
H166  C165   0.94865       .     S
C165  H166   0.94865       .     S
C167  C165   1.38817       .     S
C165  C167   1.38817       .     S
H168  C167   0.95120       .     S
C167  H168   0.95120       .     S
C169  C167   1.36577       .     S
C167  C169   1.36577       .     S
C170  C169   1.35949       .     S
C169  C170   1.35949       .     S
H171  C170   0.95137       .     S
C170  H171   0.95137       .     S
C172  C170   1.32121       .     S
C170  C172   1.32121       .     S
H173  C172   0.94827       .     S
C172  H173   0.94827       .     S
O175  S174   1.41693       .     S
S174  O175   1.41693       .     S
O176  S174   1.50081       .     S
S174  O176   1.50081       .     S
O177  S174   1.45584       .     S
S174  O177   1.45584       .     S
C184  S174   1.75470       .     S
S174  C184   1.75470       .     S
C179  C178   1.48786       .     S
C178  C179   1.48786       .     S
C193  C178   1.37220       .     S
C178  C193   1.37220       .     S
C180  C179   1.35605       .     S
C179  C180   1.35605       .     S
C187  C179   1.40479       .     S
C179  C187   1.40479       .     S
H181  C180   0.94865       .     S
C180  H181   0.94865       .     S
C182  C180   1.38816       .     S
C180  C182   1.38816       .     S
H183  C182   0.95120       .     S
C182  H183   0.95120       .     S
C184  C182   1.36577       .     S
C182  C184   1.36577       .     S
C185  C184   1.35949       .     S
C184  C185   1.35949       .     S
H186  C185   0.95137       .     S
C185  H186   0.95137       .     S
C187  C185   1.32121       .     S
C185  C187   1.32121       .     S
H188  C187   0.94827       .     S
C187  H188   0.94827       .     S
O190  S189   1.41693       .     S
S189  O190   1.41693       .     S
O191  S189   1.50081       .     S
S189  O191   1.50081       .     S
O192  S189   1.45584       .     S
S189  O192   1.45584       .     S
C199  S189   1.75470       .     S
S189  C199   1.75470       .     S
Na205 O190   2.18637   1_545     S
O190  Na205  2.18637   1_565     S
C194  C193   1.48786       .     S
C193  C194   1.48786       .     S
C195  C194   1.35605       .     S
C194  C195   1.35605       .     S
C202  C194   1.40479       .     S
C194  C202   1.40479       .     S
H196  C195   0.94865       .     S
C195  H196   0.94865       .     S
C197  C195   1.38816       .     S
C195  C197   1.38816       .     S
H198  C197   0.95120       .     S
C197  H198   0.95120       .     S
C199  C197   1.36577       .     S
C197  C199   1.36577       .     S
C200  C199   1.35949       .     S
C199  C200   1.35949       .     S
H201  C200   0.95137       .     S
C200  H201   0.95137       .     S
C202  C200   1.32121       .     S
C200  C202   1.32121       .     S
H203  C202   0.94827       .     S
C202  H203   0.94827       .     S
