data_I
_chemical_name_common  '/data/user2/wty/HOF/MOFDiff/mofdiff/data/test/5-5'
_cell_length_a 26.88880
_cell_length_b 26.88880
_cell_length_c 26.88880
_cell_angle_alpha 90.00000
_cell_angle_beta  90.00000
_cell_angle_gamma 90.00000
_space_group_name_H-M_alt      'P 1'


loop_
_space_group_symop_operation_xyz
  'x, y, z' 

loop_
_atom_site_label
_atom_site_fract_x
_atom_site_fract_y
_atom_site_fract_z
_atom_site_type_symbol
N0       0.777    0.223    0.223     N
O1      0.7551   0.2449   0.1888     O
O2      0.8112   0.2449   0.2449     O
O3      0.7551   0.1888   0.2449     O
C4      0.8575   0.3272   0.1425     C
N5      0.8157   0.3113   0.1232     N
H6      0.8052   0.3235   0.0948     H
H7      0.7982   0.2884   0.1387     H
N8      0.8815   0.3606   0.1185     N
H9      0.8698    0.372   0.0901     H
N10     0.8768   0.3113   0.1843     N
H11     0.9052   0.3235   0.1948     H
H12     0.8613   0.2884   0.2018     H
H13     0.9099    0.372   0.1302     H
O14     0.2735    0.516   0.0724     O
Na15      0.25      0.5      0.0    Na
O16     0.2265   0.4276    0.016     O
S17     0.3046   0.5055   0.8864     S
O18     0.2735    0.484   0.9276     O
O19     0.2705   0.5409   0.8638     O
O20     0.3542   0.5188   0.8934     O
C21     0.3087   0.3449   0.7279     C
C22     0.3061   0.3848   0.7665     C
C23     0.3314   0.4293   0.7591     C
H24      0.349    0.435    0.729     H
C25     0.3306   0.4663   0.7973     C
H26     0.3476    0.497   0.7934     H
C27     0.3045   0.4559   0.8396     C
C28     0.2809   0.4136   0.8455     C
H29     0.2628   0.4082   0.8754     H
C30     0.2812   0.3778    0.811     C
H31     0.2642   0.3474   0.8171     H
S32     0.5055   0.3046   0.8864     S
O33      0.484   0.2735   0.9276     O
O34     0.5409   0.2705   0.8638     O
O35     0.5188   0.3542   0.8934     O
C36     0.3449   0.3087   0.7279     C
C37     0.3848   0.3061   0.7665     C
C38     0.4293   0.3314   0.7591     C
H39      0.435    0.349    0.729     H
C40     0.4663   0.3306   0.7973     C
H41      0.497   0.3476   0.7934     H
C42     0.4559   0.3045   0.8396     C
C43     0.4136   0.2809   0.8455     C
H44     0.4082   0.2628   0.8754     H
C45     0.3778   0.2812    0.811     C
H46     0.3474   0.2642   0.8171     H
S47     0.1136   0.5055   0.6954     S
O48     0.0724    0.484   0.7265     O
O49     0.1362   0.5409   0.7295     O
O50     0.1066   0.5188   0.6458     O
C51     0.2721   0.3449   0.6913     C
C52     0.2335   0.3848   0.6939     C
C53     0.2409   0.4293   0.6686     C
H54      0.271    0.435    0.651     H
C55     0.2027   0.4663   0.6694     C
H56     0.2066    0.497   0.6524     H
C57     0.1604   0.4559   0.6955     C
C58     0.1545   0.4136   0.7191     C
H59     0.1246   0.4082   0.7372     H
C60      0.189   0.3778   0.7188     C
H61     0.1829   0.3474   0.7358     H
S62     0.5055   0.1136   0.6954     S
O63      0.484   0.0724   0.7265     O
O64     0.5409   0.1362   0.7295     O
O65     0.5188   0.1066   0.6458     O
C66     0.3449   0.2721   0.6913     C
C67     0.3848   0.2335   0.6939     C
C68     0.4293   0.2409   0.6686     C
H69      0.435    0.271    0.651     H
C70     0.4663   0.2027   0.6694     C
H71      0.497   0.2066   0.6524     H
C72     0.4559   0.1604   0.6955     C
C73     0.4136   0.1545   0.7191     C
H74     0.4082   0.1246   0.7372     H
C75     0.3778    0.189   0.7188     C
H76     0.3474   0.1829   0.7358     H
S77     0.1136   0.3046   0.4945     S
O78     0.0724   0.2735    0.516     O
O79     0.1362   0.2705   0.4591     O
O80     0.1066   0.3542   0.4812     O
C81     0.2721   0.3087   0.6551     C
C82     0.2335   0.3061   0.6152     C
C83     0.2409   0.3314   0.5707     C
H84      0.271    0.349    0.565     H
C85     0.2027   0.3306   0.5337     C
H86     0.2066   0.3476    0.503     H
C87     0.1604   0.3045   0.5441     C
C88     0.1545   0.2809   0.5864     C
H89     0.1246   0.2628   0.5918     H
C90      0.189   0.2812   0.6222     C
H91     0.1829   0.2642   0.6526     H
S92     0.3046   0.1136   0.4945     S
O93     0.2735   0.0724    0.516     O
O94     0.2705   0.1362   0.4591     O
O95     0.3542   0.1066   0.4812     O
C96     0.3087   0.2721   0.6551     C
C97     0.3061   0.2335   0.6152     C
C98     0.3314   0.2409   0.5707     C
H99      0.349    0.271    0.565     H
C100    0.3306   0.2027   0.5337     C
H101    0.3476   0.2066    0.503     H
C102    0.3045   0.1604   0.5441     C
C103    0.2809   0.1545   0.5864     C
H104    0.2628   0.1246   0.5918     H
C105    0.2812    0.189   0.6222     C
H106    0.2642   0.1829   0.6526     H
Na107      0.0      0.5     0.75    Na
Na108     0.25      0.0      0.5    Na
Na109      0.5      0.0     0.75    Na
Na110      0.0     0.25      0.5    Na
Na111      0.5     0.25      0.0    Na
O112    0.4276   0.2265    0.016     O
S113    0.4945   0.3046   0.1136     S
O114     0.516   0.2735   0.0724     O
O115    0.4591   0.2705   0.1362     O
O116    0.4812   0.3542   0.1066     O
C117    0.6551   0.3087   0.2721     C
C118    0.6152   0.3061   0.2335     C
C119    0.5707   0.3314   0.2409     C
H120     0.565    0.349    0.271     H
C121    0.5337   0.3306   0.2027     C
H122     0.503   0.3476   0.2066     H
C123    0.5441   0.3045   0.1604     C
C124    0.5864   0.2809   0.1545     C
H125    0.5918   0.2628   0.1246     H
C126    0.6222   0.2812    0.189     C
H127    0.6526   0.2642   0.1829     H
S128    0.6954   0.5055   0.1136     S
O129    0.7265    0.484   0.0724     O
O130    0.7295   0.5409   0.1362     O
O131    0.6458   0.5188   0.1066     O
C132    0.6913   0.3449   0.2721     C
C133    0.6939   0.3848   0.2335     C
C134    0.6686   0.4293   0.2409     C
H135     0.651    0.435    0.271     H
C136    0.6694   0.4663   0.2027     C
H137    0.6524    0.497   0.2066     H
C138    0.6955   0.4559   0.1604     C
C139    0.7191   0.4136   0.1545     C
H140    0.7372   0.4082   0.1246     H
C141    0.7188   0.3778    0.189     C
H142    0.7358   0.3474   0.1829     H
S143    0.4945   0.1136   0.3046     S
O144     0.516   0.0724   0.2735     O
O145    0.4591   0.1362   0.2705     O
O146    0.4812   0.1066   0.3542     O
C147    0.6551   0.2721   0.3087     C
C148    0.6152   0.2335   0.3061     C
C149    0.5707   0.2409   0.3314     C
H150     0.565    0.271    0.349     H
C151    0.5337   0.2027   0.3306     C
H152     0.503   0.2066   0.3476     H
C153    0.5441   0.1604   0.3045     C
C154    0.5864   0.1545   0.2809     C
H155    0.5918   0.1246   0.2628     H
C156    0.6222    0.189   0.2812     C
H157    0.6526   0.1829   0.2642     H
S158    0.8864   0.5055   0.3046     S
O159    0.9276    0.484   0.2735     O
O160    0.8638   0.5409   0.2705     O
O161    0.8934   0.5188   0.3542     O
C162    0.7279   0.3449   0.3087     C
C163    0.7665   0.3848   0.3061     C
C164    0.7591   0.4293   0.3314     C
H165     0.729    0.435    0.349     H
C166    0.7973   0.4663   0.3306     C
H167    0.7934    0.497   0.3476     H
C168    0.8396   0.4559   0.3045     C
C169    0.8455   0.4136   0.2809     C
H170    0.8754   0.4082   0.2628     H
C171     0.811   0.3778   0.2812     C
H172    0.8171   0.3474   0.2642     H
S173    0.6954   0.1136   0.5055     S
O174    0.7265   0.0724    0.484     O
O175    0.7295   0.1362   0.5409     O
O176    0.6458   0.1066   0.5188     O
C177    0.6913   0.2721   0.3449     C
C178    0.6939   0.2335   0.3848     C
C179    0.6686   0.2409   0.4293     C
H180     0.651    0.271    0.435     H
C181    0.6694   0.2027   0.4663     C
H182    0.6524   0.2066    0.497     H
C183    0.6955   0.1604   0.4559     C
C184    0.7191   0.1545   0.4136     C
H185    0.7372   0.1246   0.4082     H
C186    0.7188    0.189   0.3778     C
H187    0.7358   0.1829   0.3474     H
S188    0.8864   0.3046   0.5055     S
O189    0.9276   0.2735    0.484     O
O190    0.8638   0.2705   0.5409     O
O191    0.8934   0.3542   0.5188     O
C192    0.7279   0.3087   0.3449     C
C193    0.7665   0.3061   0.3848     C
C194    0.7591   0.3314   0.4293     C
H195     0.729    0.349    0.435     H
C196    0.7973   0.3306   0.4663     C
H197    0.7934   0.3476    0.497     H
C198    0.8396   0.3045   0.4559     C
C199    0.8455   0.2809   0.4136     C
H200    0.8754   0.2628   0.4082     H
C201     0.811   0.2812   0.3778     C
H202    0.8171   0.2642   0.3474     H
Na203     0.75      0.5      0.0    Na
Na204      0.0      0.5     0.25    Na
Na205     0.75      0.0      0.5    Na
Na206      0.5      0.0     0.25    Na
O207    0.7735   0.5724    0.016     O
O208    0.7735   0.4276    0.984     O
O209    0.7265    0.516   0.9276     O
O210    0.5724   0.2265    0.984     O
O211    0.2265   0.5724    0.984     O
loop_
_geom_bond_atom_site_label_1
_geom_bond_atom_site_label_2
_geom_bond_distance
_geom_bond_site_symmetry_2
_ccdc_geom_bond_type
H7    O1     2.12742       .     S
O1    H7     2.12742       .     S
H12   O2     2.12742       .     S
O2    H12    2.12742       .     S
N0    O1     1.24064       .     S
O1    N0     1.24064       .     S
N0    O2     1.24064       .     S
O2    N0     1.24064       .     S
N0    O3     1.24064       .     S
O3    N0     1.24064       .     S
C4    N5     1.30972       .     S
N5    C4     1.30972       .     S
C4    N8     1.28041       .     S
N8    C4     1.28041       .     S
C4    N10    1.30972       .     S
N10   C4     1.30972       .     S
N5    H6     0.87777       .     S
H6    N5     0.87777       .     S
N5    H7     0.87993       .     S
H7    N5     0.87993       .     S
N8    H9     0.88096       .     S
H9    N8     0.88096       .     S
N8    H13    0.88096       .     S
H13   N8     0.88096       .     S
N10   H11    0.87777       .     S
H11   N10    0.87777       .     S
N10   H12    0.87993       .     S
H12   N10    0.87993       .     S
O14   Na15   2.09146       .     S
Na15  O14    2.09146       .     S
Na15  O16    2.09146       .     S
O16   Na15   2.09146       .     S
Na15  O18    2.09146   1_554     S
O18   Na15   2.09146   1_556     S
Na15  O211   2.09146   1_554     S
O211  Na15   2.09146   1_556     S
S17   O18    1.50359       .     S
O18   S17    1.50359       .     S
S17   O19    1.45466       .     S
O19   S17    1.45466       .     S
S17   O20    1.39357       .     S
O20   S17    1.39357       .     S
S17   C27    1.83365       .     S
C27   S17    1.83365       .     S
C21   C22    1.49438       .     S
C22   C21    1.49438       .     S
C21   C36    1.37656       .     S
C36   C21    1.37656       .     S
C21   C51    1.39177       .     S
C51   C21    1.39177       .     S
C22   C23    1.39073       .     S
C23   C22    1.39073       .     S
C22   C30    1.38399       .     S
C30   C22    1.38399       .     S
C23   H24    0.95000       .     S
H24   C23    0.95000       .     S
C23   C25    1.43014       .     S
C25   C23    1.43014       .     S
C25   H26    0.94941       .     S
H26   C25    0.94941       .     S
C25   C27    1.36543       .     S
C27   C25    1.36543       .     S
C27   C28    1.31207       .     S
C28   C27    1.31207       .     S
C28   H29    0.95096       .     S
H29   C28    0.95096       .     S
C28   C30    1.33688       .     S
C30   C28    1.33688       .     S
C30   H31    0.95080       .     S
H31   C30    0.95080       .     S
S32   O33    1.50359       .     S
O33   S32    1.50359       .     S
S32   O34    1.45466       .     S
O34   S32    1.45466       .     S
S32   O35    1.39357       .     S
O35   S32    1.39357       .     S
S32   C42    1.83365       .     S
C42   S32    1.83365       .     S
O33   Na111  2.09146   1_556     S
Na111 O33    2.09146   1_554     S
C36   C37    1.49438       .     S
C37   C36    1.49438       .     S
C36   C66    1.39177       .     S
C66   C36    1.39177       .     S
C37   C38    1.39073       .     S
C38   C37    1.39073       .     S
C37   C45    1.38399       .     S
C45   C37    1.38399       .     S
C38   H39    0.95000       .     S
H39   C38    0.95000       .     S
C38   C40    1.43014       .     S
C40   C38    1.43014       .     S
C40   H41    0.94941       .     S
H41   C40    0.94941       .     S
C40   C42    1.36543       .     S
C42   C40    1.36543       .     S
C42   C43    1.31207       .     S
C43   C42    1.31207       .     S
C43   H44    0.95096       .     S
H44   C43    0.95096       .     S
C43   C45    1.33688       .     S
C45   C43    1.33688       .     S
C45   H46    0.95080       .     S
H46   C45    0.95080       .     S
S47   O48    1.50359       .     S
O48   S47    1.50359       .     S
S47   O49    1.45466       .     S
O49   S47    1.45466       .     S
S47   O50    1.39357       .     S
O50   S47    1.39357       .     S
S47   C57    1.83365       .     S
C57   S47    1.83365       .     S
O48   Na107  2.09146       .     S
Na107 O48    2.09146       .     S
C51   C52    1.49438       .     S
C52   C51    1.49438       .     S
C51   C81    1.37656       .     S
C81   C51    1.37656       .     S
C52   C53    1.39073       .     S
C53   C52    1.39073       .     S
C52   C60    1.38399       .     S
C60   C52    1.38399       .     S
C53   H54    0.95000       .     S
H54   C53    0.95000       .     S
C53   C55    1.43014       .     S
C55   C53    1.43014       .     S
C55   H56    0.94941       .     S
H56   C55    0.94941       .     S
C55   C57    1.36543       .     S
C57   C55    1.36543       .     S
C57   C58    1.31207       .     S
C58   C57    1.31207       .     S
C58   H59    0.95096       .     S
H59   C58    0.95096       .     S
C58   C60    1.33688       .     S
C60   C58    1.33688       .     S
C60   H61    0.95080       .     S
H61   C60    0.95080       .     S
S62   O63    1.50359       .     S
O63   S62    1.50359       .     S
S62   O64    1.45466       .     S
O64   S62    1.45466       .     S
S62   O65    1.39357       .     S
O65   S62    1.39357       .     S
S62   C72    1.83365       .     S
C72   S62    1.83365       .     S
O63   Na109  2.09146       .     S
Na109 O63    2.09146       .     S
C66   C67    1.49438       .     S
C67   C66    1.49438       .     S
C66   C96    1.37656       .     S
C96   C66    1.37656       .     S
C67   C68    1.39072       .     S
C68   C67    1.39072       .     S
C67   C75    1.38399       .     S
C75   C67    1.38399       .     S
C68   H69    0.95000       .     S
H69   C68    0.95000       .     S
C68   C70    1.43014       .     S
C70   C68    1.43014       .     S
C70   H71    0.94941       .     S
H71   C70    0.94941       .     S
C70   C72    1.36543       .     S
C72   C70    1.36543       .     S
C72   C73    1.31207       .     S
C73   C72    1.31207       .     S
C73   H74    0.95096       .     S
H74   C73    0.95096       .     S
C73   C75    1.33688       .     S
C75   C73    1.33688       .     S
C75   H76    0.95080       .     S
H76   C75    0.95080       .     S
S77   O78    1.50359       .     S
O78   S77    1.50359       .     S
S77   O79    1.45466       .     S
O79   S77    1.45466       .     S
S77   O80    1.39357       .     S
O80   S77    1.39357       .     S
S77   C87    1.83365       .     S
C87   S77    1.83365       .     S
O78   Na110  2.09146       .     S
Na110 O78    2.09146       .     S
C81   C82    1.49438       .     S
C82   C81    1.49438       .     S
C81   C96    1.39177       .     S
C96   C81    1.39177       .     S
C82   C83    1.39073       .     S
C83   C82    1.39073       .     S
C82   C90    1.38399       .     S
C90   C82    1.38399       .     S
C83   H84    0.95000       .     S
H84   C83    0.95000       .     S
C83   C85    1.43014       .     S
C85   C83    1.43014       .     S
C85   H86    0.94941       .     S
H86   C85    0.94941       .     S
C85   C87    1.36543       .     S
C87   C85    1.36543       .     S
C87   C88    1.31207       .     S
C88   C87    1.31207       .     S
C88   H89    0.95096       .     S
H89   C88    0.95096       .     S
C88   C90    1.33689       .     S
C90   C88    1.33689       .     S
C90   H91    0.95080       .     S
H91   C90    0.95080       .     S
S92   O93    1.50359       .     S
O93   S92    1.50359       .     S
S92   O94    1.45466       .     S
O94   S92    1.45466       .     S
S92   O95    1.39357       .     S
O95   S92    1.39357       .     S
S92   C102   1.83365       .     S
C102  S92    1.83365       .     S
O93   Na108  2.09146       .     S
Na108 O93    2.09146       .     S
C96   C97    1.49438       .     S
C97   C96    1.49438       .     S
C97   C98    1.39072       .     S
C98   C97    1.39072       .     S
C97   C105   1.38399       .     S
C105  C97    1.38399       .     S
C98   H99    0.95000       .     S
H99   C98    0.95000       .     S
C98   C100   1.43014       .     S
C100  C98    1.43014       .     S
C100  H101   0.94941       .     S
H101  C100   0.94941       .     S
C100  C102   1.36543       .     S
C102  C100   1.36543       .     S
C102  C103   1.31207       .     S
C103  C102   1.31207       .     S
C103  H104   0.95096       .     S
H104  C103   0.95096       .     S
C103  C105   1.33689       .     S
C105  C103   1.33689       .     S
C105  H106   0.95080       .     S
H106  C105   0.95080       .     S
Na110 O189   2.09146   1_455     S
O189  Na110  2.09146   1_655     S
Na111 O112   2.09146       .     S
O112  Na111  2.09146       .     S
Na111 O114   2.09146       .     S
O114  Na111  2.09146       .     S
Na111 O210   2.09146   1_554     S
O210  Na111  2.09146   1_556     S
S113  O114   1.50359       .     S
O114  S113   1.50359       .     S
S113  O115   1.45466       .     S
O115  S113   1.45466       .     S
S113  O116   1.39357       .     S
O116  S113   1.39357       .     S
S113  C123   1.83365       .     S
C123  S113   1.83365       .     S
C117  C118   1.49438       .     S
C118  C117   1.49438       .     S
C117  C132   1.37656       .     S
C132  C117   1.37656       .     S
C117  C147   1.39177       .     S
C147  C117   1.39177       .     S
C118  C119   1.39073       .     S
C119  C118   1.39073       .     S
C118  C126   1.38399       .     S
C126  C118   1.38399       .     S
C119  H120   0.95000       .     S
H120  C119   0.95000       .     S
C119  C121   1.43014       .     S
C121  C119   1.43014       .     S
C121  H122   0.94941       .     S
H122  C121   0.94941       .     S
C121  C123   1.36543       .     S
C123  C121   1.36543       .     S
C123  C124   1.31207       .     S
C124  C123   1.31207       .     S
C124  H125   0.95096       .     S
H125  C124   0.95096       .     S
C124  C126   1.33689       .     S
C126  C124   1.33689       .     S
C126  H127   0.95080       .     S
H127  C126   0.95080       .     S
S128  O129   1.50359       .     S
O129  S128   1.50359       .     S
S128  O130   1.45466       .     S
O130  S128   1.45466       .     S
S128  O131   1.39357       .     S
O131  S128   1.39357       .     S
S128  C138   1.83365       .     S
C138  S128   1.83365       .     S
O129  Na203  2.09146       .     S
Na203 O129   2.09146       .     S
C132  C133   1.49438       .     S
C133  C132   1.49438       .     S
C132  C162   1.39177       .     S
C162  C132   1.39177       .     S
C133  C134   1.39073       .     S
C134  C133   1.39073       .     S
C133  C141   1.38399       .     S
C141  C133   1.38399       .     S
C134  H135   0.95000       .     S
H135  C134   0.95000       .     S
C134  C136   1.43014       .     S
C136  C134   1.43014       .     S
C136  H137   0.94941       .     S
H137  C136   0.94941       .     S
C136  C138   1.36543       .     S
C138  C136   1.36543       .     S
C138  C139   1.31207       .     S
C139  C138   1.31207       .     S
C139  H140   0.95096       .     S
H140  C139   0.95096       .     S
C139  C141   1.33688       .     S
C141  C139   1.33688       .     S
C141  H142   0.95080       .     S
H142  C141   0.95080       .     S
S143  O144   1.50359       .     S
O144  S143   1.50359       .     S
S143  O145   1.45466       .     S
O145  S143   1.45466       .     S
S143  O146   1.39357       .     S
O146  S143   1.39357       .     S
S143  C153   1.83365       .     S
C153  S143   1.83365       .     S
O144  Na206  2.09146       .     S
Na206 O144   2.09146       .     S
C147  C148   1.49438       .     S
C148  C147   1.49438       .     S
C147  C177   1.37656       .     S
C177  C147   1.37656       .     S
C148  C149   1.39073       .     S
C149  C148   1.39073       .     S
C148  C156   1.38399       .     S
C156  C148   1.38399       .     S
C149  H150   0.95000       .     S
H150  C149   0.95000       .     S
C149  C151   1.43014       .     S
C151  C149   1.43014       .     S
C151  H152   0.94941       .     S
H152  C151   0.94941       .     S
C151  C153   1.36543       .     S
C153  C151   1.36543       .     S
C153  C154   1.31207       .     S
C154  C153   1.31207       .     S
C154  H155   0.95096       .     S
H155  C154   0.95096       .     S
C154  C156   1.33689       .     S
C156  C154   1.33689       .     S
C156  H157   0.95080       .     S
H157  C156   0.95080       .     S
S158  O159   1.50359       .     S
O159  S158   1.50359       .     S
S158  O160   1.45466       .     S
O160  S158   1.45466       .     S
S158  O161   1.39357       .     S
O161  S158   1.39357       .     S
S158  C168   1.83365       .     S
C168  S158   1.83365       .     S
O159  Na204  2.09146   1_655     S
Na204 O159   2.09146   1_455     S
C162  C163   1.49438       .     S
C163  C162   1.49438       .     S
C162  C192   1.37656       .     S
C192  C162   1.37656       .     S
C163  C164   1.39073       .     S
C164  C163   1.39073       .     S
C163  C171   1.38399       .     S
C171  C163   1.38399       .     S
C164  H165   0.95000       .     S
H165  C164   0.95000       .     S
C164  C166   1.43014       .     S
C166  C164   1.43014       .     S
C166  H167   0.94941       .     S
H167  C166   0.94941       .     S
C166  C168   1.36543       .     S
C168  C166   1.36543       .     S
C168  C169   1.31207       .     S
C169  C168   1.31207       .     S
C169  H170   0.95096       .     S
H170  C169   0.95096       .     S
C169  C171   1.33688       .     S
C171  C169   1.33688       .     S
C171  H172   0.95080       .     S
H172  C171   0.95080       .     S
S173  O174   1.50359       .     S
O174  S173   1.50359       .     S
S173  O175   1.45466       .     S
O175  S173   1.45466       .     S
S173  O176   1.39357       .     S
O176  S173   1.39357       .     S
S173  C183   1.83365       .     S
C183  S173   1.83365       .     S
O174  Na205  2.09146       .     S
Na205 O174   2.09146       .     S
C177  C178   1.49438       .     S
C178  C177   1.49438       .     S
C177  C192   1.39177       .     S
C192  C177   1.39177       .     S
C178  C179   1.39073       .     S
C179  C178   1.39073       .     S
C178  C186   1.38399       .     S
C186  C178   1.38399       .     S
C179  H180   0.95000       .     S
H180  C179   0.95000       .     S
C179  C181   1.43014       .     S
C181  C179   1.43014       .     S
C181  H182   0.94941       .     S
H182  C181   0.94941       .     S
C181  C183   1.36543       .     S
C183  C181   1.36543       .     S
C183  C184   1.31207       .     S
C184  C183   1.31207       .     S
C184  H185   0.95096       .     S
H185  C184   0.95096       .     S
C184  C186   1.33688       .     S
C186  C184   1.33688       .     S
C186  H187   0.95080       .     S
H187  C186   0.95080       .     S
S188  O189   1.50359       .     S
O189  S188   1.50359       .     S
S188  O190   1.45466       .     S
O190  S188   1.45466       .     S
S188  O191   1.39357       .     S
O191  S188   1.39357       .     S
S188  C198   1.83365       .     S
C198  S188   1.83365       .     S
C192  C193   1.49438       .     S
C193  C192   1.49438       .     S
C193  C194   1.39073       .     S
C194  C193   1.39073       .     S
C193  C201   1.38399       .     S
C201  C193   1.38399       .     S
C194  H195   0.95000       .     S
H195  C194   0.95000       .     S
C194  C196   1.43014       .     S
C196  C194   1.43014       .     S
C196  H197   0.94941       .     S
H197  C196   0.94941       .     S
C196  C198   1.36543       .     S
C198  C196   1.36543       .     S
C198  C199   1.31207       .     S
C199  C198   1.31207       .     S
C199  H200   0.95096       .     S
H200  C199   0.95096       .     S
C199  C201   1.33689       .     S
C201  C199   1.33689       .     S
C201  H202   0.95080       .     S
H202  C201   0.95080       .     S
Na203 O207   2.09146       .     S
O207  Na203  2.09146       .     S
Na203 O208   2.09146   1_554     S
O208  Na203  2.09146   1_556     S
Na203 O209   2.09146   1_554     S
O209  Na203  2.09146   1_556     S
O1    H7     2.12742       .     S
H7    O1     2.12742       .     S
O2    H12    2.12742       .     S
H12   O2     2.12742       .     S
O1    N0     1.24064       .     S
N0    O1     1.24064       .     S
O2    N0     1.24064       .     S
N0    O2     1.24064       .     S
O3    N0     1.24064       .     S
N0    O3     1.24064       .     S
N5    C4     1.30972       .     S
C4    N5     1.30972       .     S
N8    C4     1.28041       .     S
C4    N8     1.28041       .     S
N10   C4     1.30972       .     S
C4    N10    1.30972       .     S
H6    N5     0.87777       .     S
N5    H6     0.87777       .     S
H7    N5     0.87993       .     S
N5    H7     0.87993       .     S
H9    N8     0.88096       .     S
N8    H9     0.88096       .     S
H13   N8     0.88096       .     S
N8    H13    0.88096       .     S
H11   N10    0.87777       .     S
N10   H11    0.87777       .     S
H12   N10    0.87993       .     S
N10   H12    0.87993       .     S
Na15  O14    2.09146       .     S
O14   Na15   2.09146       .     S
O16   Na15   2.09146       .     S
Na15  O16    2.09146       .     S
O18   Na15   2.09146   1_556     S
Na15  O18    2.09146   1_554     S
O211  Na15   2.09146   1_556     S
Na15  O211   2.09146   1_554     S
O18   S17    1.50359       .     S
S17   O18    1.50359       .     S
O19   S17    1.45466       .     S
S17   O19    1.45466       .     S
O20   S17    1.39357       .     S
S17   O20    1.39357       .     S
C27   S17    1.83365       .     S
S17   C27    1.83365       .     S
C22   C21    1.49438       .     S
C21   C22    1.49438       .     S
C36   C21    1.37656       .     S
C21   C36    1.37656       .     S
C51   C21    1.39177       .     S
C21   C51    1.39177       .     S
C23   C22    1.39073       .     S
C22   C23    1.39073       .     S
C30   C22    1.38399       .     S
C22   C30    1.38399       .     S
H24   C23    0.95000       .     S
C23   H24    0.95000       .     S
C25   C23    1.43014       .     S
C23   C25    1.43014       .     S
H26   C25    0.94941       .     S
C25   H26    0.94941       .     S
C27   C25    1.36543       .     S
C25   C27    1.36543       .     S
C28   C27    1.31207       .     S
C27   C28    1.31207       .     S
H29   C28    0.95096       .     S
C28   H29    0.95096       .     S
C30   C28    1.33688       .     S
C28   C30    1.33688       .     S
H31   C30    0.95080       .     S
C30   H31    0.95080       .     S
O33   S32    1.50359       .     S
S32   O33    1.50359       .     S
O34   S32    1.45466       .     S
S32   O34    1.45466       .     S
O35   S32    1.39357       .     S
S32   O35    1.39357       .     S
C42   S32    1.83365       .     S
S32   C42    1.83365       .     S
Na111 O33    2.09146   1_554     S
O33   Na111  2.09146   1_556     S
C37   C36    1.49438       .     S
C36   C37    1.49438       .     S
C66   C36    1.39177       .     S
C36   C66    1.39177       .     S
C38   C37    1.39073       .     S
C37   C38    1.39073       .     S
C45   C37    1.38399       .     S
C37   C45    1.38399       .     S
H39   C38    0.95000       .     S
C38   H39    0.95000       .     S
C40   C38    1.43014       .     S
C38   C40    1.43014       .     S
H41   C40    0.94941       .     S
C40   H41    0.94941       .     S
C42   C40    1.36543       .     S
C40   C42    1.36543       .     S
C43   C42    1.31207       .     S
C42   C43    1.31207       .     S
H44   C43    0.95096       .     S
C43   H44    0.95096       .     S
C45   C43    1.33688       .     S
C43   C45    1.33688       .     S
H46   C45    0.95080       .     S
C45   H46    0.95080       .     S
O48   S47    1.50359       .     S
S47   O48    1.50359       .     S
O49   S47    1.45466       .     S
S47   O49    1.45466       .     S
O50   S47    1.39357       .     S
S47   O50    1.39357       .     S
C57   S47    1.83365       .     S
S47   C57    1.83365       .     S
Na107 O48    2.09146       .     S
O48   Na107  2.09146       .     S
C52   C51    1.49438       .     S
C51   C52    1.49438       .     S
C81   C51    1.37656       .     S
C51   C81    1.37656       .     S
C53   C52    1.39073       .     S
C52   C53    1.39073       .     S
C60   C52    1.38399       .     S
C52   C60    1.38399       .     S
H54   C53    0.95000       .     S
C53   H54    0.95000       .     S
C55   C53    1.43014       .     S
C53   C55    1.43014       .     S
H56   C55    0.94941       .     S
C55   H56    0.94941       .     S
C57   C55    1.36543       .     S
C55   C57    1.36543       .     S
C58   C57    1.31207       .     S
C57   C58    1.31207       .     S
H59   C58    0.95096       .     S
C58   H59    0.95096       .     S
C60   C58    1.33688       .     S
C58   C60    1.33688       .     S
H61   C60    0.95080       .     S
C60   H61    0.95080       .     S
O63   S62    1.50359       .     S
S62   O63    1.50359       .     S
O64   S62    1.45466       .     S
S62   O64    1.45466       .     S
O65   S62    1.39357       .     S
S62   O65    1.39357       .     S
C72   S62    1.83365       .     S
S62   C72    1.83365       .     S
Na109 O63    2.09146       .     S
O63   Na109  2.09146       .     S
C67   C66    1.49438       .     S
C66   C67    1.49438       .     S
C96   C66    1.37656       .     S
C66   C96    1.37656       .     S
C68   C67    1.39072       .     S
C67   C68    1.39072       .     S
C75   C67    1.38399       .     S
C67   C75    1.38399       .     S
H69   C68    0.95000       .     S
C68   H69    0.95000       .     S
C70   C68    1.43014       .     S
C68   C70    1.43014       .     S
H71   C70    0.94941       .     S
C70   H71    0.94941       .     S
C72   C70    1.36543       .     S
C70   C72    1.36543       .     S
C73   C72    1.31207       .     S
C72   C73    1.31207       .     S
H74   C73    0.95096       .     S
C73   H74    0.95096       .     S
C75   C73    1.33688       .     S
C73   C75    1.33688       .     S
H76   C75    0.95080       .     S
C75   H76    0.95080       .     S
O78   S77    1.50359       .     S
S77   O78    1.50359       .     S
O79   S77    1.45466       .     S
S77   O79    1.45466       .     S
O80   S77    1.39357       .     S
S77   O80    1.39357       .     S
C87   S77    1.83365       .     S
S77   C87    1.83365       .     S
Na110 O78    2.09146       .     S
O78   Na110  2.09146       .     S
C82   C81    1.49438       .     S
C81   C82    1.49438       .     S
C96   C81    1.39177       .     S
C81   C96    1.39177       .     S
C83   C82    1.39073       .     S
C82   C83    1.39073       .     S
C90   C82    1.38399       .     S
C82   C90    1.38399       .     S
H84   C83    0.95000       .     S
C83   H84    0.95000       .     S
C85   C83    1.43014       .     S
C83   C85    1.43014       .     S
H86   C85    0.94941       .     S
C85   H86    0.94941       .     S
C87   C85    1.36543       .     S
C85   C87    1.36543       .     S
C88   C87    1.31207       .     S
C87   C88    1.31207       .     S
H89   C88    0.95096       .     S
C88   H89    0.95096       .     S
C90   C88    1.33689       .     S
C88   C90    1.33689       .     S
H91   C90    0.95080       .     S
C90   H91    0.95080       .     S
O93   S92    1.50359       .     S
S92   O93    1.50359       .     S
O94   S92    1.45466       .     S
S92   O94    1.45466       .     S
O95   S92    1.39357       .     S
S92   O95    1.39357       .     S
C102  S92    1.83365       .     S
S92   C102   1.83365       .     S
Na108 O93    2.09146       .     S
O93   Na108  2.09146       .     S
C97   C96    1.49438       .     S
C96   C97    1.49438       .     S
C98   C97    1.39072       .     S
C97   C98    1.39072       .     S
C105  C97    1.38399       .     S
C97   C105   1.38399       .     S
H99   C98    0.95000       .     S
C98   H99    0.95000       .     S
C100  C98    1.43014       .     S
C98   C100   1.43014       .     S
H101  C100   0.94941       .     S
C100  H101   0.94941       .     S
C102  C100   1.36543       .     S
C100  C102   1.36543       .     S
C103  C102   1.31207       .     S
C102  C103   1.31207       .     S
H104  C103   0.95096       .     S
C103  H104   0.95096       .     S
C105  C103   1.33689       .     S
C103  C105   1.33689       .     S
H106  C105   0.95080       .     S
C105  H106   0.95080       .     S
O189  Na110  2.09146   1_655     S
Na110 O189   2.09146   1_455     S
O112  Na111  2.09146       .     S
Na111 O112   2.09146       .     S
O114  Na111  2.09146       .     S
Na111 O114   2.09146       .     S
O210  Na111  2.09146   1_556     S
Na111 O210   2.09146   1_554     S
O114  S113   1.50359       .     S
S113  O114   1.50359       .     S
O115  S113   1.45466       .     S
S113  O115   1.45466       .     S
O116  S113   1.39357       .     S
S113  O116   1.39357       .     S
C123  S113   1.83365       .     S
S113  C123   1.83365       .     S
C118  C117   1.49438       .     S
C117  C118   1.49438       .     S
C132  C117   1.37656       .     S
C117  C132   1.37656       .     S
C147  C117   1.39177       .     S
C117  C147   1.39177       .     S
C119  C118   1.39073       .     S
C118  C119   1.39073       .     S
C126  C118   1.38399       .     S
C118  C126   1.38399       .     S
H120  C119   0.95000       .     S
C119  H120   0.95000       .     S
C121  C119   1.43014       .     S
C119  C121   1.43014       .     S
H122  C121   0.94941       .     S
C121  H122   0.94941       .     S
C123  C121   1.36543       .     S
C121  C123   1.36543       .     S
C124  C123   1.31207       .     S
C123  C124   1.31207       .     S
H125  C124   0.95096       .     S
C124  H125   0.95096       .     S
C126  C124   1.33689       .     S
C124  C126   1.33689       .     S
H127  C126   0.95080       .     S
C126  H127   0.95080       .     S
O129  S128   1.50359       .     S
S128  O129   1.50359       .     S
O130  S128   1.45466       .     S
S128  O130   1.45466       .     S
O131  S128   1.39357       .     S
S128  O131   1.39357       .     S
C138  S128   1.83365       .     S
S128  C138   1.83365       .     S
Na203 O129   2.09146       .     S
O129  Na203  2.09146       .     S
C133  C132   1.49438       .     S
C132  C133   1.49438       .     S
C162  C132   1.39177       .     S
C132  C162   1.39177       .     S
C134  C133   1.39073       .     S
C133  C134   1.39073       .     S
C141  C133   1.38399       .     S
C133  C141   1.38399       .     S
H135  C134   0.95000       .     S
C134  H135   0.95000       .     S
C136  C134   1.43014       .     S
C134  C136   1.43014       .     S
H137  C136   0.94941       .     S
C136  H137   0.94941       .     S
C138  C136   1.36543       .     S
C136  C138   1.36543       .     S
C139  C138   1.31207       .     S
C138  C139   1.31207       .     S
H140  C139   0.95096       .     S
C139  H140   0.95096       .     S
C141  C139   1.33688       .     S
C139  C141   1.33688       .     S
H142  C141   0.95080       .     S
C141  H142   0.95080       .     S
O144  S143   1.50359       .     S
S143  O144   1.50359       .     S
O145  S143   1.45466       .     S
S143  O145   1.45466       .     S
O146  S143   1.39357       .     S
S143  O146   1.39357       .     S
C153  S143   1.83365       .     S
S143  C153   1.83365       .     S
Na206 O144   2.09146       .     S
O144  Na206  2.09146       .     S
C148  C147   1.49438       .     S
C147  C148   1.49438       .     S
C177  C147   1.37656       .     S
C147  C177   1.37656       .     S
C149  C148   1.39073       .     S
C148  C149   1.39073       .     S
C156  C148   1.38399       .     S
C148  C156   1.38399       .     S
H150  C149   0.95000       .     S
C149  H150   0.95000       .     S
C151  C149   1.43014       .     S
C149  C151   1.43014       .     S
H152  C151   0.94941       .     S
C151  H152   0.94941       .     S
C153  C151   1.36543       .     S
C151  C153   1.36543       .     S
C154  C153   1.31207       .     S
C153  C154   1.31207       .     S
H155  C154   0.95096       .     S
C154  H155   0.95096       .     S
C156  C154   1.33689       .     S
C154  C156   1.33689       .     S
H157  C156   0.95080       .     S
C156  H157   0.95080       .     S
O159  S158   1.50359       .     S
S158  O159   1.50359       .     S
O160  S158   1.45466       .     S
S158  O160   1.45466       .     S
O161  S158   1.39357       .     S
S158  O161   1.39357       .     S
C168  S158   1.83365       .     S
S158  C168   1.83365       .     S
Na204 O159   2.09146   1_455     S
O159  Na204  2.09146   1_655     S
C163  C162   1.49438       .     S
C162  C163   1.49438       .     S
C192  C162   1.37656       .     S
C162  C192   1.37656       .     S
C164  C163   1.39073       .     S
C163  C164   1.39073       .     S
C171  C163   1.38399       .     S
C163  C171   1.38399       .     S
H165  C164   0.95000       .     S
C164  H165   0.95000       .     S
C166  C164   1.43014       .     S
C164  C166   1.43014       .     S
H167  C166   0.94941       .     S
C166  H167   0.94941       .     S
C168  C166   1.36543       .     S
C166  C168   1.36543       .     S
C169  C168   1.31207       .     S
C168  C169   1.31207       .     S
H170  C169   0.95096       .     S
C169  H170   0.95096       .     S
C171  C169   1.33688       .     S
C169  C171   1.33688       .     S
H172  C171   0.95080       .     S
C171  H172   0.95080       .     S
O174  S173   1.50359       .     S
S173  O174   1.50359       .     S
O175  S173   1.45466       .     S
S173  O175   1.45466       .     S
O176  S173   1.39357       .     S
S173  O176   1.39357       .     S
C183  S173   1.83365       .     S
S173  C183   1.83365       .     S
Na205 O174   2.09146       .     S
O174  Na205  2.09146       .     S
C178  C177   1.49438       .     S
C177  C178   1.49438       .     S
C192  C177   1.39177       .     S
C177  C192   1.39177       .     S
C179  C178   1.39073       .     S
C178  C179   1.39073       .     S
C186  C178   1.38399       .     S
C178  C186   1.38399       .     S
H180  C179   0.95000       .     S
C179  H180   0.95000       .     S
C181  C179   1.43014       .     S
C179  C181   1.43014       .     S
H182  C181   0.94941       .     S
C181  H182   0.94941       .     S
C183  C181   1.36543       .     S
C181  C183   1.36543       .     S
C184  C183   1.31207       .     S
C183  C184   1.31207       .     S
H185  C184   0.95096       .     S
C184  H185   0.95096       .     S
C186  C184   1.33688       .     S
C184  C186   1.33688       .     S
H187  C186   0.95080       .     S
C186  H187   0.95080       .     S
O189  S188   1.50359       .     S
S188  O189   1.50359       .     S
O190  S188   1.45466       .     S
S188  O190   1.45466       .     S
O191  S188   1.39357       .     S
S188  O191   1.39357       .     S
C198  S188   1.83365       .     S
S188  C198   1.83365       .     S
C193  C192   1.49438       .     S
C192  C193   1.49438       .     S
C194  C193   1.39073       .     S
C193  C194   1.39073       .     S
C201  C193   1.38399       .     S
C193  C201   1.38399       .     S
H195  C194   0.95000       .     S
C194  H195   0.95000       .     S
C196  C194   1.43014       .     S
C194  C196   1.43014       .     S
H197  C196   0.94941       .     S
C196  H197   0.94941       .     S
C198  C196   1.36543       .     S
C196  C198   1.36543       .     S
C199  C198   1.31207       .     S
C198  C199   1.31207       .     S
H200  C199   0.95096       .     S
C199  H200   0.95096       .     S
C201  C199   1.33689       .     S
C199  C201   1.33689       .     S
H202  C201   0.95080       .     S
C201  H202   0.95080       .     S
O207  Na203  2.09146       .     S
Na203 O207   2.09146       .     S
O208  Na203  2.09146   1_556     S
Na203 O208   2.09146   1_554     S
O209  Na203  2.09146   1_556     S
Na203 O209   2.09146   1_554     S
