data_I
_chemical_name_common  '/data/user2/wty/HOF/MOFDiff/mofdiff/data/test/6_918144_2as_tpma_tmbd-pos1b'
_cell_length_a 26.17300
_cell_length_b 31.95700
_cell_length_c 32.73900
_cell_angle_alpha 90.00000
_cell_angle_beta  111.62000
_cell_angle_gamma 90.00000
_space_group_name_H-M_alt      'P 1'


loop_
_space_group_symop_operation_xyz
  'x, y, z' 

loop_
_atom_site_label
_atom_site_fract_x
_atom_site_fract_y
_atom_site_fract_z
_atom_site_type_symbol
N0      0.4021  0.49745  0.83222     N
C1     0.39368  0.50286  0.87475     C
C2     0.43951  0.53145  0.90442     C
C3     0.45929  0.56426  0.88707     C
C4     0.49914  0.59135  0.91406     C
C5     0.51659  0.58779  0.95963     C
C6     0.49438  0.55737  0.97775     C
C7     0.45672  0.52915   0.9509     C
C8     0.39553  0.45915   0.8946     C
C9     0.43254  0.42907  0.89063     C
C10    0.43364  0.38912  0.90812     C
C11    0.39856  0.37906  0.92996     C
C12    0.36357  0.40936  0.93553     C
C13    0.36305  0.44927  0.91797     C
C14     0.3378  0.52356  0.86475     C
C15    0.32938   0.5521  0.89322     C
C16    0.27737  0.56897  0.88459     C
C17    0.23389  0.55796  0.84825     C
C18    0.24213  0.53042  0.81943     C
C19    0.29384  0.51312  0.82708     C
H20       0.38   0.4835   0.8156     H
H21     0.3892   0.5226   0.8138     H
H22     0.4288   0.4948   0.8361     H
H23     0.4462   0.5681   0.8568     H
H24     0.5134   0.6121   0.9016     H
H25      0.543    0.606   0.9777     H
H26     0.5048   0.5554   0.0082     H
H27     0.4424   0.5082   0.9632     H
H28     0.4564    0.436   0.8764     H
H29     0.4581   0.3691   0.9051     H
H30     0.3984   0.3523    0.941     H
H31     0.3406   0.4029   0.9504     H
H32     0.3402   0.4698   0.9224     H
H33     0.3585   0.5599   0.9183     H
H34     0.2724   0.5887   0.9039     H
H35     0.1989   0.5684   0.8429     H
H36     0.2129   0.5233   0.7939     H
H37     0.2986   0.4944   0.8069     H
C38    0.62616  0.75313  0.77617     C
C39    0.68097  0.74272  0.79061     C
C40    0.70975  0.73123   0.8333     C
C41     0.6814  0.72648   0.8622     C
C42     0.6255  0.73385  0.84752     C
C43     0.5986  0.74728  0.80539     C
C44    0.59687  0.76623   0.7298     C
C45     0.7694   0.7204   0.8501     C
C46     0.5946   0.7266   0.8765     C
H47      0.699   0.7435   0.7709     H
H48     0.7004   0.7184   0.8912     H
H49     0.5611   0.7527   0.7958     H
H50     0.5998    0.796   0.7275     H
H51     0.5588   0.7585   0.7206     H
H52     0.6131   0.7526   0.7114     H
H53     0.7736   0.6909   0.8466     H
H54     0.7858   0.7275   0.8807     H
H55     0.7873   0.7357    0.834     H
H56     0.5813   0.6983   0.8731     H
H57      0.564   0.7456   0.8688     H
H58     0.6183   0.7312   0.9065     H
C59     0.7421   0.7639   0.5502     C
C60      0.746   0.7099    0.537     C
C61      0.767   0.7192   0.5306     C
C62     0.7706   0.7426   0.5084     C
C63     0.8005   0.6966   0.5152     C
C64     0.2318   0.6802   0.4819     C
C65      0.253   0.6416   0.4947     C
C66     0.3092   0.6258  0.50575     C
C67     0.3192   0.5828  0.51761     C
C68      0.361   0.6706    0.497     C
C69     0.3675   0.6334   0.5024     C
C70      0.317   0.7034   0.4876     C
C71      0.239   0.7136   0.4792     C
C72     0.8373   0.6429   0.5115     C
C73     0.8384   0.6772   0.4771     C
C74      0.788   0.6955   0.4543     C
C75     0.7854   0.7192   0.4139     C
C76     0.7395   0.7379   0.3857     C
C77     0.8852   0.6836   0.4697     C
C78     0.8868   0.7121   0.4315     C
C79     0.8353   0.7264   0.4049     C
C80     0.9314   0.7142   0.4242     C
H81     0.8419   0.6561    0.539     H
H82     0.8667   0.6233   0.5159     H
H83     0.8028   0.6284   0.5007     H
H84     0.7583   0.6933   0.4632     H
H85     0.7197   0.7186   0.3629     H
H86     0.7496    0.762   0.3729     H
H87     0.7166   0.7464   0.4014     H
H88     0.9173   0.6706   0.4879     H
H89     0.8324   0.7415   0.3798     H
H90     0.9525   0.7379   0.4395     H
H91      0.923   0.7174   0.3932     H
H92     0.9523   0.6891   0.4343     H
S93    0.87848  0.39921  0.78554     S
O94    0.90918  0.37967   0.7616     O
O95    0.84294  0.43284  0.76104     O
O96    0.91471  0.41206  0.82968     O
C97    0.78942  0.34857   0.7595     C
C98    0.83479  0.36061  0.79377     C
C99    0.84872  0.34261  0.83647     C
C100   0.81607  0.31226  0.84316     C
C101   0.65544  0.21912  0.78588     C
C102   0.61276  0.20391   0.7516     C
C103   0.60056  0.22046   0.7085     C
C104   0.63083  0.25331   0.7003     C
C105   0.70921  0.30204  0.73055     C
C106   0.73438  0.26646  0.81424     C
C107   0.75511  0.31642  0.76544     C
C108   0.76827  0.29839  0.80813     C
C109   0.67641  0.26922  0.73636     C
C110   0.68935  0.25189  0.77912     C
H111    0.7811   0.3609   0.7321     H
H112      0.88   0.3514   0.8596     H
H113    0.8251   0.3007    0.871     H
H114    0.6633   0.2085   0.8139     H
H115    0.5912   0.1827   0.7565     H
H116     0.571   0.2096   0.6849     H
H117    0.6217   0.2646   0.6723     H
H118    0.7003   0.3139   0.7029     H
H119    0.7425   0.2549   0.8419     H
N120   0.30352  0.48255  0.66033     N
C121   0.25262  0.47692  0.61974     C
C122   0.21209  0.44963  0.63171     C
C123   0.21096  0.45042  0.67337     C
C124   0.17248  0.42576  0.68285     C
C125   0.13296   0.4037  0.65067     C
C126   0.13526  0.40166  0.60954     C
C127   0.17441  0.42508  0.59981     C
C128   0.22853  0.52056  0.60429     C
C129   0.17186  0.52658  0.58572     C
C130   0.15019  0.56619  0.57082     C
C131   0.18448   0.5996  0.57429     C
C132   0.24078  0.59402  0.59247     C
C133   0.26281  0.55487  0.60753     C
C134   0.26991  0.45499  0.58484     C
C135   0.25319  0.46993  0.54223     C
C136   0.26671  0.44788  0.51035     C
C137   0.29692  0.41226  0.52108     C
C138   0.31468  0.39703  0.56456     C
C139   0.30059   0.4183  0.59583     C
H140    0.3177   0.4556   0.6731     H
H141    0.3239   0.4911   0.6541     H
H142    0.2997   0.5026   0.6829     H
H143    0.2353    0.467   0.6952     H
H144    0.1734   0.4245   0.7115     H
H145    0.1053   0.3901   0.6569     H
H146    0.1103   0.3854   0.5879     H
H147    0.1756    0.424   0.5718     H
H148    0.1481   0.5039   0.5829     H
H149    0.1127     0.57   0.5587     H
H150    0.1702   0.6258   0.5643     H
H151    0.2639   0.6164   0.5944     H
H152    0.3006   0.5516   0.6199     H
H153     0.233   0.4945   0.5346     H
H154    0.2547   0.4581   0.4818     H
H155    0.3059   0.3982   0.4999     H
H156    0.3353   0.3726    0.572     H
H157    0.3116    0.408   0.6244     H
N158   0.48672  0.41269  0.73879     N
C159   0.52317  0.37608  0.73751     C
C160    0.5584  0.39032  0.71172     C
C161   0.57954  0.43099  0.71671     C
C162   0.61466  0.44326   0.6958     C
C163   0.63073  0.41448  0.67102     C
C164    0.6078  0.37432  0.66435     C
C165    0.5724  0.36196  0.68512     C
C166   0.55845  0.36503   0.7853     C
C167   0.61211  0.35024   0.7959     C
C168   0.64321  0.33778   0.8388     C
C169   0.62239  0.34116  0.87136     C
C170    0.5689  0.35583  0.86154     C
C171   0.53754  0.36744   0.8189     C
C172   0.48504  0.33995  0.71494     C
C173   0.50087  0.29855  0.72791     C
C174   0.46818  0.26575  0.70648     C
C175     0.416  0.27343  0.67298     C
C176    0.4006  0.31443  0.66072     C
C177    0.4346  0.34777  0.68056     C
H178    0.5145   0.4349   0.7592     H
H179    0.4766   0.4199   0.7214     H
H180    0.4623   0.4074   0.7517     H
H181      0.57   0.4501   0.7341     H
H182    0.6271   0.4707    0.698     H
H183    0.6558    0.422   0.6585     H
H184    0.6179   0.3556   0.6471     H
H185    0.5582    0.335   0.6811     H
H186    0.6268   0.3485   0.7742     H
H187    0.6786   0.3273   0.8448     H
H188    0.6439   0.3337   0.9001     H
H189     0.554   0.3573   0.8833     H
H190     0.502   0.3774   0.8123     H
H191    0.5341   0.2934    0.751     H
H192    0.4802   0.2384   0.7138     H
H193     0.393   0.2513   0.6593     H
H194    0.3663   0.3197   0.6385     H
H195     0.424   0.3749    0.671     H
S196   0.05462  0.49872  0.85861     S
O197   0.01098  0.51884   0.8685     O
O198   0.05506  0.50946  0.81591     O
O199   0.05744  0.45381   0.8661     O
C200   0.16204   0.4997  0.91563     C
C201   0.11459  0.52146  0.89779     C
C202   0.11136  0.56458  0.90844     C
C203    0.1567  0.58415  0.93729     C
C204   0.35419  0.58135  0.03076     C
C205   0.40179  0.55971  0.04867     C
C206   0.40508  0.51704  0.03978     C
C207   0.35949  0.49678  0.01225     C
C208   0.26088  0.49816  0.96406     C
C209   0.25532  0.58247  0.98532     C
C210   0.21064  0.51963  0.94589     C
C211    0.2069  0.56242  0.95673     C
C212   0.30793  0.51839  0.99241     C
C213   0.30505  0.56109  0.00246     C
H214    0.1629   0.4716   0.9085     H
H215    0.0784   0.5792   0.8957     H
H216    0.1538   0.6119    0.945     H
H217    0.3533   0.6097    0.037     H
H218    0.4326   0.5732    0.068     H
H219    0.4382    0.503   0.0521     H
H220    0.3616   0.4686   0.0064     H
H221    0.2626   0.4703   0.9572     H
H222    0.2538   0.6104   0.9928     H
N223   0.46887  0.57509  0.73197     N
C224   0.50241  0.61448  0.73541     C
C225   0.49321  0.62778  0.68839     C
C226   0.43946  0.62912  0.65742     C
C227   0.43043  0.64199  0.61485     C
C228   0.47358  0.65324  0.60283     C
C229   0.52655   0.6519  0.63333     C
C230    0.5365  0.63888  0.67589     C
C231   0.56287   0.6036  0.76129     C
C232   0.58445  0.56552  0.75471     C
C233   0.63913  0.55599  0.77705     C
C234   0.67412  0.58503  0.80538     C
C235   0.65361  0.62307   0.8113     C
C236   0.59813  0.63241  0.79014     C
C237    0.4807   0.6476  0.75918     C
C238   0.47567  0.68941   0.7464     C
C239   0.45605  0.71887  0.76848     C
C240   0.44146  0.70674  0.80311     C
C241    0.4466  0.66553    0.816     C
C242   0.46715   0.6362  0.79432     C
H243    0.4743   0.5557   0.7154     H
H244     0.481   0.5646   0.7531     H
H245    0.4295   0.5789   0.7267     H
H246    0.4102   0.6214   0.6654     H
H247    0.3945   0.6431   0.5944     H
H248     0.467   0.6618   0.5741     H
H249    0.5561   0.6596   0.6251     H
H250    0.5724   0.6378   0.6961     H
H251    0.5611   0.5461   0.7356     H
H252    0.6527   0.5301   0.7728     H
H253    0.7111   0.5786   0.8199     H
H254    0.6768   0.6427   0.8304     H
H255    0.5842   0.6579   0.7948     H
H256    0.4847   0.6977   0.7227     H
H257    0.4524   0.7467   0.7594     H
H258    0.4283   0.7263   0.8178     H
H259    0.4372    0.657   0.8394     H
H260    0.4717   0.6085   0.8037     H
C261    0.5758     0.83    0.499     C
C262    0.5181    0.833   0.5043     C
C263    0.4693   0.8098   0.4813     C
C264    0.4729   0.7823   0.4493     C
C265    0.5252     0.78   0.4433     C
C266    0.5734   0.8032   0.4671     C
C267    0.6343   0.8581     0.53     C
C268    0.4284   0.8238   0.4936     C
C269     0.549    0.747   0.4218     C
C270    0.6341   0.7984   0.4885     C
C271     0.685   0.8144   0.5343     C
C272    0.6636   0.7553   0.4882     C
S273   0.86304  0.57216  0.74576     S
O274   0.91066   0.5966  0.77231     O
O275   0.87064  0.55387  0.70765     O
O276   0.84614  0.54121   0.7707     O
C277   0.78625  0.61676  0.68133     C
C278   0.80733  0.60717   0.7252     C
C279   0.78502  0.62463  0.75413     C
C280   0.74092  0.65119  0.73867     C
C281     0.607  0.72561   0.6099     C
C282    0.5884  0.73461    0.567     C
C283    0.6177  0.71952   0.5384     C
C284     0.659  0.69364   0.5553     C
C285    0.7223  0.65558  0.61966     C
C286    0.6723  0.68866  0.67689     C
C287   0.74145  0.64411  0.66465     C
C288    0.7174  0.66192  0.69326     C
C289    0.6791  0.68209  0.60167     C
C290   0.65245  0.69831   0.6302     C
H291    0.8019   0.6053   0.6625     H
H292       0.8    0.618   0.7839     H
H293     0.726   0.6625   0.7582     H
H294    0.5891   0.7375   0.6282     H
H295    0.5569   0.7516   0.5557     H
H296    0.6043   0.7285   0.5106     H
H297    0.6743   0.6829   0.5373     H
H298    0.7402   0.6446   0.6019     H
H299    0.6556   0.7001    0.695     H
C300    0.9168   0.8149   0.4612     C
C301    0.8784   0.8452   0.4254     C
C302    0.9067   0.8028   0.5011     C
C303    0.9684   0.8097   0.4527     C
C304    0.0188   0.7855   0.4894     C
C305     0.003   0.7704   0.5254     C
C306    0.9521   0.7744   0.5303     C
C307    0.9393   0.7607   0.5635     C
C308    0.0713   0.7768   0.4926     C
H309    0.8485   0.8296    0.405     H
H310     0.899   0.8584     0.41     H
H311     0.864   0.8662   0.4392     H
H312    0.8766   0.8115   0.5075     H
H313    0.9717   0.8201   0.4272     H
H314    0.0302   0.7562   0.5479     H
H315    0.9541   0.7794    0.588     H
H316    0.9544   0.7333   0.5718     H
H317    0.9001   0.7595   0.5547     H
H318    0.0714   0.7516   0.4767     H
H319    0.0943   0.7732   0.5229     H
H320     0.085   0.7996   0.4804     H
S321    0.4415  0.49451  0.64938     S
O322   0.39256    0.517  0.64886     O
O323   0.43638  0.44947  0.65257     O
O324   0.49126   0.5111   0.6825     O
C325   0.48438  0.53353  0.59565     C
C326   0.44586  0.50606  0.59792     C
C327   0.40613  0.48824   0.5595     C
C328    0.4068  0.49847  0.51951     C
C329    0.4888  0.57928   0.4293     C
C330    0.5265   0.6071  0.42688     C
C331    0.5658  0.62447  0.46567     C
C332   0.56569  0.61409  0.50601     C
C333   0.52475  0.57339  0.55051     C
C334   0.44709  0.53921  0.47393     C
C335   0.48562   0.5452  0.55382     C
C336   0.44631  0.52763   0.5151     C
C337   0.52568  0.58524  0.50971     C
C338   0.48513  0.56754  0.47044     C
H339    0.5102   0.5446   0.6213     H
H340    0.3798   0.4696   0.5618     H
H341    0.3813   0.4865   0.4944     H
H342    0.4646   0.5679   0.4038     H
H343     0.528    0.614   0.3999     H
H344    0.5909    0.644   0.4637     H
H345    0.5922   0.6257   0.5314     H
H346    0.5505   0.5844    0.576     H
H347    0.4215   0.5278   0.4486     H
S348   0.53678  0.49867  0.82609     S
O349   0.50294  0.53612  0.81225     O
O350   0.51437  0.47078  0.85083     O
O351   0.54709  0.47758   0.7905     O
C352   0.60809  0.55476  0.87952     C
C353   0.60156  0.51561  0.86265     C
C354    0.6457  0.48686  0.87459     C
C355   0.69582  0.49878  0.90438     C
C356    0.8135   0.6022  0.00807     C
C357    0.8178   0.6428  0.02503     C
C358     0.776   0.6689   0.0142     C
C359    0.7273   0.6598   0.9831     C
C360    0.6675  0.60739  0.93077     C
C361   0.75438   0.5507   0.9557     C
C362   0.65937   0.5677  0.91097     C
C363   0.70433  0.53875  0.92359     C
C364     0.716   0.6197  0.96257     C
C365     0.761  0.59066  0.97494     C
H366     0.579   0.5736   0.8701     H
H367    0.6408   0.4601   0.8625     H
H368    0.7248   0.4795    0.912     H
H369    0.8427   0.5839   0.0172     H
H370    0.8513   0.6519   0.0452     H
H371    0.7798   0.6948   0.0284     H
H372       0.7   0.6801   0.9748     H
H373    0.6384   0.6262   0.9217     H
H374    0.7839   0.5319   0.9645     H
N375   0.90322  0.49449  0.84634     N
C376   0.87515  0.50204  0.87816     C
C377    0.8679  0.54965  0.88016     C
C378   0.91016   0.5764  0.88023     C
C379   0.90513  0.61908   0.8843     C
C380   0.85836  0.63588  0.88864     C
C381   0.81643  0.60983  0.88888     C
C382   0.82128  0.56645  0.88441     C
C383   0.82034  0.47773  0.85924     C
C384   0.78229  0.48889  0.81829     C
C385   0.73558  0.46436  0.79836     C
C386   0.72611  0.42938  0.81967     C
C387    0.7631   0.4188  0.86033     C
C388   0.81075  0.44256  0.88017     C
C389   0.91123  0.48552  0.92325     C
C390     0.898  0.49679  0.95946     C
C391     0.927  0.47934  0.00056     C
C392    0.9683  0.45277  0.00649     C
C393    0.9842  0.44243  0.97138     C
C394   0.95454  0.45788  0.92913     C
H395    0.9039   0.4659   0.8411     H
H396    0.8917   0.5051    0.821     H
H397    0.9455   0.5005   0.8519     H
H398    0.9417   0.5656   0.8776     H
H399     0.933   0.6369    0.884     H
H400    0.8555   0.6645   0.8918     H
H401    0.7854   0.6211    0.892     H
H402    0.7928   0.5489   0.8841     H
H403     0.788   0.5127   0.8041     H
H404    0.7103   0.4717    0.771     H
H405    0.6952    0.413   0.8061     H
H406    0.7563   0.3957    0.875     H
H407    0.8361   0.4346   0.9075     H
H408    0.8699   0.5157   0.9562     H
H409    0.9172   0.4864   0.0242     H
H410    0.9875   0.4409   0.0339     H
H411    0.0138   0.4247   0.9756     H
H412    0.9639   0.4501   0.9055     H
N413   0.00138  0.56745  0.75146     N
C414   0.03374  0.60302  0.74199     C
C415   0.06347  0.62506  0.78604     C
C416   0.11979  0.63278  0.80177     C
C417   0.14441  0.65373  0.84158     C
C418   0.11439  0.66687  0.86588     C
C419   0.05807  0.65955  0.85019     C
C420   0.03294  0.63858  0.81075     C
C421   0.99308  0.63295  0.70907     C
C422   0.00572   0.6754  0.70976     C
C423   0.97082   0.7025  0.67809     C
C424   0.92289  0.68718  0.64653     C
C425   0.91023  0.64519  0.64572     C
C426   0.94566    0.618  0.67638     C
C427   0.07321  0.58398  0.72228     C
C428   0.08734  0.60548  0.69115     C
C429   0.12388  0.58795  0.67374     C
C430    0.1458  0.54877  0.68712     C
C431   0.13068  0.52583  0.71754     C
C432   0.09544  0.54371   0.7357     C
H433    0.0279   0.5537   0.7773     H
H434    0.9795   0.5744   0.7577     H
H435    0.9841   0.5488   0.7287     H
H436    0.1409   0.6241   0.7857     H
H437    0.1821   0.6589   0.8519     H
H438    0.1313   0.6804   0.8926     H
H439    0.0371   0.6688   0.8661     H
H440    0.9954   0.6334   0.8007     H
H441    0.0381   0.6856   0.7307     H
H442    0.9794   0.7309   0.6785     H
H443    0.8992   0.7053   0.6259     H
H444    0.8782    0.635   0.6246     H
H445    0.9378   0.5895   0.6749     H
H446    0.0723   0.6316   0.6815     H
H447    0.1335   0.6028   0.6534     H
H448    0.1707   0.5373   0.6759     H
H449    0.1445   0.4992   0.7257     H
H450    0.0864   0.5292   0.7567     H
N451   0.02469  0.40413  0.78866     N
C452   0.06211  0.36625  0.79514     C
C453    0.0498  0.34725  0.74943     C
C454   0.99505    0.343  0.72031     C
C455   0.98331  0.32645  0.67845     C
C456   0.02618  0.31354  0.66596     C
C457   0.07998  0.31643  0.69481     C
C458   0.09177  0.33297  0.73648     C
C459   0.12066  0.38325  0.81596     C
C460    0.1391  0.41157  0.79187     C
C461   0.19127  0.42819  0.80977     C
C462   0.22575  0.41773   0.8525     C
C463   0.20824  0.38993  0.87655     C
C464   0.15566  0.37285  0.85823     C
C465   0.04909  0.33456  0.82511     C
C466   0.01918  0.34505  0.85108     C
C467   0.00952  0.31505  0.87837     C
C468   0.03003  0.27488  0.88038     C
C469   0.06047  0.26455  0.85518     C
C470   0.06962  0.29413  0.82787     C
H471    0.0266   0.4205   0.7717     H
H472    0.9919   0.3937   0.7786     H
H473    0.0357   0.4168   0.8085     H
H474    0.9665   0.3512    0.729     H
H475    0.9471   0.3241    0.659     H
H476    0.0192    0.303    0.638     H
H477    0.1084   0.3073   0.6867     H
H478    0.1279   0.3345   0.7555     H
H479    0.1161   0.4191   0.7637     H
H480    0.2038   0.4466   0.7933     H
H481    0.2609   0.4291   0.8647     H
H482    0.2312   0.3825   0.9047     H
H483    0.1438    0.354   0.8745     H
H484    0.0057    0.372   0.8505     H
H485    0.9893   0.3222   0.8953     H
H486    0.0232   0.2551   0.8987     H
H487    0.0743   0.2376   0.8564     H
H488    0.0903   0.2869    0.811     H
N489   0.84682  0.47004  0.68549     N
C490   0.79884  0.46586  0.64264     C
C491   0.75309  0.49531   0.6441     C
C492   0.74515  0.50159  0.68354     C
C493   0.70356  0.52863  0.68494     C
C494   0.66922  0.54815  0.64685     C
C495   0.67612    0.541  0.60758     C
C496   0.71863  0.51544  0.60642     C
C497   0.82059  0.47827  0.60675     C
C498   0.84428  0.51768  0.60846     C
C499   0.86714  0.52925  0.57782     C
C500   0.86652  0.50083  0.54527     C
C501   0.84278  0.46261  0.54279     C
C502   0.81972  0.45082  0.57325     C
C503    0.7794  0.42029  0.63767     C
C504   0.72542  0.41009  0.61256     C
C505   0.70838  0.36818  0.60598     C
C506   0.74482  0.33648  0.62399     C
C507   0.79878  0.34596  0.64916     C
C508   0.81584  0.38764  0.65602     C
H509    0.8746   0.4595   0.6824     H
H510    0.8499   0.5003   0.6915     H
H511    0.8415   0.4548   0.7085     H
H512    0.7673   0.4877   0.7088     H
H513    0.6991   0.5337   0.7114     H
H514    0.6415    0.566   0.6474     H
H515    0.6523   0.5531   0.5817     H
H516    0.7245   0.5122   0.5801     H
H517    0.8447   0.5365   0.6302     H
H518    0.8824   0.5556   0.5791     H
H519    0.8829   0.5083   0.5252     H
H520    0.8417    0.444   0.5206     H
H521    0.8036   0.4245   0.5712     H
H522    0.7002   0.4312   0.6001     H
H523     0.672    0.362   0.5888     H
H524     0.733   0.3088   0.6201     H
H525    0.8244   0.3246   0.6607     H
H526    0.8522   0.3939   0.6734     H
S527   0.98243  0.46336  0.68443     S
O528   0.96469  0.50651   0.6859     O
O529   0.93985  0.43316  0.68228     O
O530   0.03489  0.45351  0.71937     O
C531   0.97559  0.42427  0.60892     C
C532   0.99349  0.45904  0.63463     C
C533   0.02148  0.49204  0.62234     C
C534    0.0314  0.48887  0.58441     C
C535   0.01766  0.41037   0.4508     C
C536   0.99925  0.37605  0.42449     C
C537   0.96946  0.34463  0.43553     C
C538   0.95941  0.34649  0.47377     C
C539   0.96811  0.38532  0.54151     C
C540   0.02467  0.44933  0.51785     C
C541   0.98578  0.42026   0.5691     C
C542   0.01423  0.45324   0.5568     C
C543   0.97818  0.38179  0.50247     C
C544   0.00763  0.41421  0.49091     C
H545    0.9569   0.4033   0.6173     H
H546    0.0328   0.5157     0.64     H
H547    0.0498   0.5105   0.5766     H
H548    0.0368   0.4313   0.4427     H
H549    0.0063   0.3732    0.399     H
H550    0.9554   0.3223   0.4164     H
H551    0.9404   0.3249   0.4813     H
H552    0.9494    0.364   0.5496     H
H553    0.0434   0.4707   0.5098     H
S554   0.35154  0.40503  0.75187     S
O555   0.40784  0.39237  0.77767     O
O556   0.34194  0.40845  0.70536     O
O557   0.33479  0.44237  0.76938     O
C558   0.30794  0.35484  0.79688     C
C559   0.30798  0.36439   0.7564     C
C560   0.27488  0.34215  0.71828     C
C561   0.24259  0.31003  0.72269     C
C562   0.17951  0.21822  0.81734     C
C563   0.18409  0.20736  0.85866     C
C564    0.2158  0.23048  0.89615     C
C565    0.2448    0.264  0.89052     C
C566   0.27463  0.31082   0.8434     C
C567   0.20941  0.26514  0.76971     C
C568    0.2743  0.32142  0.80228     C
C569   0.24086  0.29863  0.76421     C
C570   0.24357  0.27681  0.84885     C
C571   0.21003  0.25354  0.81133     C
H572    0.3297   0.3701   0.8211     H
H573    0.2752   0.3493   0.6909     H
H574    0.2204   0.2954    0.698     H
H575    0.1573    0.203   0.7932     H
H576    0.1645   0.1841   0.8617     H
H577    0.2187   0.2218    0.924     H
H578    0.2643   0.2801   0.9148     H
H579    0.2949    0.327   0.8674     H
H580    0.1874   0.2502   0.7451     H
S581   0.33077  0.57412  0.73718     S
O582   0.37351  0.56789  0.78033     O
O583   0.29465  0.53794  0.72223     O
O584   0.35306  0.58821  0.70494     O
C585   0.25505  0.63517   0.7065     C
C586   0.28853  0.61508  0.74324     C
C587   0.28849  0.62577  0.78502     C
C588   0.25463   0.6565  0.78908     C
C589   0.11439  0.76498  0.72144     C
C590   0.08242  0.78627   0.6841     C
C591   0.08235  0.77553    0.644     C
C592   0.11516    0.744  0.63847     C
C593   0.18432  0.68888  0.67256     C
C594   0.18385  0.71021  0.75514     C
C595   0.21884  0.66752  0.70971     C
C596   0.21896  0.67831  0.75207     C
C597   0.14945  0.72098  0.67603     C
C598   0.14994  0.73174  0.71868     C
H599    0.2558   0.6278   0.6791     H
H600    0.3118   0.6117   0.8099     H
H601    0.2555   0.6632   0.8169     H
H602    0.1135   0.7723   0.7487     H
H603    0.0604   0.8083   0.6871     H
H604    0.0587   0.7896   0.6202     H
H605    0.1148    0.738   0.6107     H
H606    0.1847   0.6817   0.6451     H
H607    0.1835   0.7171   0.7828     H
loop_
_geom_bond_atom_site_label_1
_geom_bond_atom_site_label_2
_geom_bond_distance
_geom_bond_site_symmetry_2
_ccdc_geom_bond_type
H20   O557   2.02438       .     S
O557  H20    2.02438       .     S
H21   O582   1.76989       .     S
O582  H21    1.76989       .     S
H22   O350   2.24540       .     S
O350  H22    2.24540       .     S
H140  O556   1.81510       .     S
O556  H140   1.81510       .     S
H141  O322   2.04231       .     S
O322  H141   2.04231       .     S
H142  O583   1.75394       .     S
O583  H142   1.75394       .     S
H178  O351   1.73027       .     S
O351  H178   1.73027       .     S
H179  O323   2.30890       .     S
O323  H179   2.30890       .     S
H180  O555   1.96936       .     S
O555  H180   1.96936       .     S
H243  O324   1.93416       .     S
O324  H243   1.93416       .     S
H244  O349   2.02206       .     S
O349  H244   2.02206       .     S
H245  O584   1.88372       .     S
O584  H245   1.88372       .     S
H395  O96    1.80503       .     S
O96   H395   1.80503       .     S
H396  O276   2.00459       .     S
O276  H396   2.00459       .     S
H397  O197   1.69990   1_655     S
O197  H397   1.69990   1_455     S
H433  O198   1.85466       .     S
O198  H433   1.85466       .     S
H434  O274   2.14790       .     S
O274  H434   2.14790       .     S
H435  O528   1.87708       .     S
O528  H435   1.87708       .     S
H471  O530   2.09021       .     S
O530  H471   2.09021       .     S
H472  O94    2.07610       .     S
O94   H472   2.07610       .     S
H473  O199   2.11850       .     S
O199  H473   2.11850       .     S
H509  O529   1.90526       .     S
O529  H509   1.90526       .     S
H510  O275   1.81479       .     S
O275  H510   1.81479       .     S
H511  O95    1.84524       .     S
O95   H511   1.84524       .     S
N0    C1     1.49777       .     S
C1    N0     1.49777       .     S
N0    H20    0.77295       .     S
H20   N0     0.77295       .     S
N0    H21    0.98671       .     S
H21   N0     0.98671       .     S
N0    H22    0.66801       .     S
H22   N0     0.66801       .     S
C1    C2     1.53575       .     S
C2    C1     1.53575       .     S
C1    C8     1.53384       .     S
C8    C1     1.53384       .     S
C1    C14    1.52675       .     S
C14   C1     1.52675       .     S
C2    C3     1.38085       .     S
C3    C2     1.38085       .     S
C2    C7     1.42084       .     S
C7    C2     1.42084       .     S
C3    C4     1.39247       .     S
C4    C3     1.39247       .     S
C3    H23    0.92970       .     S
H23   C3     0.92970       .     S
C4    C5     1.39472       .     S
C5    C4     1.39472       .     S
C4    H24    0.92607       .     S
H24   C4     0.92607       .     S
C5    C6     1.37441       .     S
C6    C5     1.37441       .     S
C5    H25    0.93010       .     S
H25   C5     0.93010       .     S
C6    C7     1.38531       .     S
C7    C6     1.38531       .     S
C6    H26    0.93371   1_556     S
H26   C6     0.93371   1_554     S
C7    H27    0.92848       .     S
H27   C7     0.92848       .     S
C8    C9     1.40428       .     S
C9    C8     1.40428       .     S
C8    C13    1.37370       .     S
C13   C8     1.37370       .     S
C9    C10    1.39516       .     S
C10   C9     1.39516       .     S
C9    H28    0.93298       .     S
H28   C9     0.93298       .     S
C10   C11    1.39333       .     S
C11   C10    1.39333       .     S
C10   H29    0.93572       .     S
H29   C10    0.93572       .     S
C11   C12    1.39018       .     S
C12   C11    1.39018       .     S
C11   H30    0.92902       .     S
H30   C11    0.92902       .     S
C12   C13    1.39699       .     S
C13   C12    1.39699       .     S
C12   H31    0.92560       .     S
H31   C12    0.92560       .     S
C13   H32    0.93437       .     S
H32   C13    0.93437       .     S
C14   C15    1.37860       .     S
C15   C14    1.37860       .     S
C14   C19    1.38219       .     S
C19   C14    1.38219       .     S
C15   C16    1.39287       .     S
C16   C15    1.39287       .     S
C15   H33    0.92523       .     S
H33   C15    0.92523       .     S
C16   C17    1.35522       .     S
C17   C16    1.35522       .     S
C16   H34    0.93527       .     S
H34   C16    0.93527       .     S
C17   C18    1.36429       .     S
C18   C17    1.36429       .     S
C17   H35    0.92869       .     S
H35   C17    0.92869       .     S
C18   C19    1.39653       .     S
C19   C18    1.39653       .     S
C18   H36    0.92976       .     S
H36   C18    0.92976       .     S
C19   H37    0.93303       .     S
H37   C19    0.93303       .     S
C38   C39    1.37562       .     S
C39   C38    1.37562       .     S
C38   C43    1.40674       .     S
C43   C38    1.40674       .     S
C38   C44    1.48661       .     S
C44   C38    1.48661       .     S
C39   C40    1.37106       .     S
C40   C39    1.37106       .     S
C39   H47    0.92957       .     S
H47   C39    0.92957       .     S
C40   C41    1.40932       .     S
C41   C40    1.40932       .     S
C40   C45    1.49229       .     S
C45   C40    1.49229       .     S
C41   C42    1.38162       .     S
C42   C41    1.38162       .     S
C41   H48    0.93138       .     S
H48   C41    0.93138       .     S
C42   C43    1.36629       .     S
C43   C42    1.36629       .     S
C42   C46    1.47423       .     S
C46   C42    1.47423       .     S
C43   H49    0.92995       .     S
H49   C43    0.92995       .     S
C44   H50    0.95963       .     S
H50   C44    0.95963       .     S
C44   H51    0.96095       .     S
H51   C44    0.96095       .     S
C44   H52    0.96001       .     S
H52   C44    0.96001       .     S
C45   H53    0.96085       .     S
H53   C45    0.96085       .     S
C45   H54    0.96046       .     S
H54   C45    0.96046       .     S
C45   H55    0.95831       .     S
H55   C45    0.95831       .     S
C46   H56    0.96069       .     S
H56   C46    0.96069       .     S
C46   H57    0.96170       .     S
H57   C46    0.96170       .     S
C46   H58    0.96026       .     S
H58   C46    0.96026       .     S
C59   C61    1.78471       .     S
C61   C59    1.78471       .     S
C60   C61    0.72055       .     S
C61   C60    0.72055       .     S
C60   C62    1.68153       .     S
C62   C60    1.68153       .     S
C61   C62    1.07088       .     S
C62   C61    1.07088       .     S
C61   C63    1.36760       .     S
C63   C61    1.36760       .     S
C62   C63    1.64151       .     S
C63   C62    1.64151       .     S
C64   C65    1.35417       .     S
C65   C64    1.35417       .     S
C64   C71    1.09310       .     S
C71   C64    1.09310       .     S
C65   C66    1.46878       .     S
C66   C65    1.46878       .     S
C66   C67    1.42572       .     S
C67   C66    1.42572       .     S
C66   C69    1.58829       .     S
C69   C66    1.58829       .     S
C68   C69    1.20469       .     S
C69   C68    1.20469       .     S
C68   C70    1.50282       .     S
C70   C68    1.50282       .     S
C72   C73    1.57943       .     S
C73   C72    1.57943       .     S
C72   H81    0.96080       .     S
H81   C72    0.96080       .     S
C72   H82    0.96099       .     S
H82   C72    0.96099       .     S
C72   H83    0.95907       .     S
H83   C72    0.95907       .     S
C73   C74    1.38336       .     S
C74   C73    1.38336       .     S
C73   C77    1.34892       .     S
C77   C73    1.34892       .     S
C74   C75    1.50378       .     S
C75   C74    1.50378       .     S
C74   H84    0.92790       .     S
H84   C74    0.92790       .     S
C75   C76    1.35477       .     S
C76   C75    1.35477       .     S
C75   C79    1.45913       .     S
C79   C75    1.45913       .     S
C76   H85    0.95974       .     S
H85   C76    0.95974       .     S
C76   H86    0.95931       .     S
H86   C76    0.95931       .     S
C76   H87    0.96137       .     S
H87   C76    0.96137       .     S
C77   C78    1.56011       .     S
C78   C77    1.56011       .     S
C77   H88    0.92983       .     S
H88   C77    0.92983       .     S
C78   C79    1.38531       .     S
C79   C78    1.38531       .     S
C78   C80    1.27665       .     S
C80   C78    1.27665       .     S
C79   H89    0.93163       .     S
H89   C79    0.93163       .     S
C80   H90    0.96212       .     S
H90   C80    0.96212       .     S
C80   H91    0.96146       .     S
H91   C80    0.96146       .     S
C80   H92    0.95847       .     S
H92   C80    0.95847       .     S
S93   O94    1.45394       .     S
O94   S93    1.45394       .     S
S93   O95    1.45390       .     S
O95   S93    1.45390       .     S
S93   O96    1.46504       .     S
O96   S93    1.46504       .     S
S93   C98    1.76886       .     S
C98   S93    1.76886       .     S
C97   C98    1.35468       .     S
C98   C97    1.35468       .     S
C97   C107   1.42425       .     S
C107  C97    1.42425       .     S
C97   H111   0.92921       .     S
H111  C97    0.92921       .     S
C98   C99    1.42916       .     S
C99   C98    1.42916       .     S
C99   C100   1.36266       .     S
C100  C99    1.36266       .     S
C99   H112   0.93045       .     S
H112  C99    0.93045       .     S
C100  C108   1.42113       .     S
C108  C100   1.42113       .     S
C100  H113   0.92970       .     S
H113  C100   0.92970       .     S
C101  C102   1.34900       .     S
C102  C101   1.34900       .     S
C101  C110   1.44157       .     S
C110  C101   1.44157       .     S
C101  H114   0.92734       .     S
H114  C101   0.92734       .     S
C102  C103   1.42854       .     S
C103  C102   1.42854       .     S
C102  H115   0.93289       .     S
H115  C102   0.93289       .     S
C103  C104   1.39947       .     S
C104  C103   1.39947       .     S
C103  H116   0.93568       .     S
H116  C103   0.93568       .     S
C104  C109   1.42744       .     S
C109  C104   1.42744       .     S
C104  H117   0.93069       .     S
H117  C104   0.93069       .     S
C105  C107   1.39569       .     S
C107  C105   1.39569       .     S
C105  C109   1.41193       .     S
C109  C105   1.41193       .     S
C105  H118   0.92839       .     S
H118  C105   0.92839       .     S
C106  C108   1.41376       .     S
C108  C106   1.41376       .     S
C106  C110   1.38898       .     S
C110  C106   1.38898       .     S
C106  H119   0.92729       .     S
H119  C106   0.92729       .     S
C107  C108   1.43152       .     S
C108  C107   1.43152       .     S
C109  C110   1.42541       .     S
C110  C109   1.42541       .     S
N120  C121   1.50615       .     S
C121  N120   1.50615       .     S
N120  H140   0.96950       .     S
H140  N120   0.96950       .     S
N120  H141   0.69351       .     S
H141  N120   0.69351       .     S
N120  H142   1.01044       .     S
H142  N120   1.01044       .     S
C121  C122   1.53159       .     S
C122  C121   1.53159       .     S
C121  C128   1.53730       .     S
C128  C121   1.53730       .     S
C121  C134   1.54352       .     S
C134  C121   1.54352       .     S
C122  C123   1.37531       .     S
C123  C122   1.37531       .     S
C122  C127   1.38558       .     S
C127  C122   1.38558       .     S
C123  C124   1.40072       .     S
C124  C123   1.40072       .     S
C123  H143   0.92836       .     S
H143  C123   0.92836       .     S
C124  C125   1.36887       .     S
C125  C124   1.36887       .     S
C124  H144   0.93024       .     S
H144  C124   0.93024       .     S
C125  C126   1.37143       .     S
C126  C125   1.37143       .     S
C125  H145   0.92919       .     S
H145  C125   0.92919       .     S
C126  C127   1.39718       .     S
C127  C126   1.39718       .     S
C126  H146   0.92610       .     S
H146  C126   0.92610       .     S
C127  H147   0.92959       .     S
H147  C127   0.92959       .     S
C128  C129   1.39359       .     S
C129  C128   1.39359       .     S
C128  C133   1.39581       .     S
C133  C128   1.39581       .     S
C129  C130   1.39931       .     S
C130  C129   1.39931       .     S
C129  H148   0.93715       .     S
H148  C129   0.93715       .     S
C130  C131   1.37229       .     S
C131  C130   1.37229       .     S
C130  H149   0.92096       .     S
H149  C130   0.92096       .     S
C131  C132   1.38242       .     S
C132  C131   1.38242       .     S
C131  H150   0.92607       .     S
H150  C131   0.92607       .     S
C132  C133   1.38973       .     S
C133  C132   1.38973       .     S
C132  H151   0.92385       .     S
H151  C132   0.92385       .     S
C133  H152   0.92630       .     S
H152  C133   0.92630       .     S
C134  C135   1.38407       .     S
C135  C134   1.38407       .     S
C134  C139   1.39144       .     S
C139  C134   1.39144       .     S
C135  C136   1.40828       .     S
C136  C135   1.40828       .     S
C135  H153   0.92784       .     S
H153  C135   0.92784       .     S
C136  C137   1.35634       .     S
C137  C136   1.35634       .     S
C136  H154   0.92878       .     S
H154  C136   0.92878       .     S
C137  C138   1.41127       .     S
C138  C137   1.41127       .     S
C137  H155   0.92631       .     S
H155  C137   0.92631       .     S
C138  C139   1.38719       .     S
C139  C138   1.38719       .     S
C138  H156   0.92910       .     S
H156  C138   0.92910       .     S
C139  H157   0.93148       .     S
H157  C139   0.93148       .     S
N158  C159   1.51991       .     S
C159  N158   1.51991       .     S
N158  H178   1.05873       .     S
H178  N158   1.05873       .     S
N158  H179   0.57988       .     S
H179  N158   0.57988       .     S
N158  H180   0.90266       .     S
H180  N158   0.90266       .     S
C159  C160   1.53099       .     S
C160  C159   1.53099       .     S
C159  C166   1.53645       .     S
C166  C159   1.53645       .     S
C159  C172   1.52698       .     S
C172  C159   1.52698       .     S
C160  C161   1.39836       .     S
C161  C160   1.39836       .     S
C160  C165   1.39613       .     S
C165  C160   1.39613       .     S
C161  C162   1.38961       .     S
C162  C161   1.38961       .     S
C161  H181   0.92962       .     S
H181  C161   0.92962       .     S
C162  C163   1.39011       .     S
C163  C162   1.39011       .     S
C162  H182   0.92891       .     S
H182  C162   0.92891       .     S
C163  C164   1.39942       .     S
C164  C163   1.39942       .     S
C163  H183   0.92439       .     S
H183  C163   0.92439       .     S
C164  C165   1.39324       .     S
C165  C164   1.39324       .     S
C164  H184   0.92559       .     S
H184  C164   0.92559       .     S
C165  H185   0.92827       .     S
H185  C165   0.92827       .     S
C166  C167   1.39898       .     S
C167  C166   1.39898       .     S
C166  C171   1.39969       .     S
C171  C166   1.39969       .     S
C167  C168   1.39689       .     S
C168  C167   1.39689       .     S
C167  H186   0.92570       .     S
H186  C167   0.92570       .     S
C168  C169   1.36857       .     S
C169  C168   1.36857       .     S
C168  H187   0.93522       .     S
H187  C168   0.93522       .     S
C169  C170   1.39694       .     S
C170  C169   1.39694       .     S
C169  H188   0.93207       .     S
H188  C169   0.93207       .     S
C170  C171   1.38412       .     S
C171  C170   1.38412       .     S
C170  H189   0.93088       .     S
H189  C170   0.93088       .     S
C171  H190   0.93013       .     S
H190  C171   0.93013       .     S
C172  C173   1.40453       .     S
C173  C172   1.40453       .     S
C172  C177   1.40613       .     S
C177  C172   1.40613       .     S
C173  C174   1.37136       .     S
C174  C173   1.37136       .     S
C173  H191   0.93299       .     S
H191  C173   0.93299       .     S
C174  C175   1.42285       .     S
C175  C174   1.42285       .     S
C174  H192   0.92993       .     S
H192  C174   0.92993       .     S
C175  C176   1.38603       .     S
C176  C175   1.38603       .     S
C175  H193   0.92975       .     S
H193  C175   0.92975       .     S
C176  C177   1.38673       .     S
C177  C176   1.38673       .     S
C176  H194   0.93928       .     S
H194  C176   0.93928       .     S
C177  H195   0.92877       .     S
H195  C177   0.92877       .     S
S196  O197   1.44754       .     S
O197  S196   1.44754       .     S
S196  O198   1.44363       .     S
O198  S196   1.44363       .     S
S196  O199   1.45327       .     S
O199  S196   1.45327       .     S
S196  C201   1.77580       .     S
C201  S196   1.77580       .     S
C200  C201   1.35370       .     S
C201  C200   1.35370       .     S
C200  C210   1.44100       .     S
C210  C200   1.44100       .     S
C200  H214   0.93019       .     S
H214  C200   0.93019       .     S
C201  C202   1.43153       .     S
C202  C201   1.43153       .     S
C202  C203   1.36584       .     S
C203  C202   1.36584       .     S
C202  H215   0.93343       .     S
H215  C202   0.93343       .     S
C203  C211   1.41329       .     S
C211  C203   1.41329       .     S
C203  H216   0.93275       .     S
H216  C203   0.93275       .     S
C204  C205   1.35494       .     S
C205  C204   1.35494       .     S
C204  C213   1.43306       .     S
C213  C204   1.43306       .     S
C204  H217   0.93091       .     S
H217  C204   0.93091       .     S
C205  C206   1.40357       .     S
C206  C205   1.40357       .     S
C205  H218   0.92766       .     S
H218  C205   0.92766       .     S
C206  C207   1.36485       .     S
C207  C206   1.36485       .     S
C206  H219   0.92616       .     S
H219  C206   0.92616       .     S
C207  C212   1.44014   1_554     S
C212  C207   1.44014   1_556     S
C207  H220   0.92656       .     S
H220  C207   0.92656       .     S
C208  C210   1.40615       .     S
C210  C208   1.40615       .     S
C208  C212   1.39772       .     S
C212  C208   1.39772       .     S
C208  H221   0.92336       .     S
H221  C208   0.92336       .     S
C209  C211   1.42077       .     S
C211  C209   1.42077       .     S
C209  C213   1.39198   1_556     S
C213  C209   1.39198   1_554     S
C209  H222   0.93027       .     S
H222  C209   0.93027       .     S
C210  C211   1.42514       .     S
C211  C210   1.42514       .     S
C212  C213   1.41218   1_556     S
C213  C212   1.41218   1_554     S
N223  C224   1.51492       .     S
C224  N223   1.51492       .     S
N223  H243   0.86906       .     S
H243  N223   0.86906       .     S
N223  H244   0.72793       .     S
H244  N223   0.72793       .     S
N223  H245   0.98761       .     S
H245  N223   0.98761       .     S
C224  C225   1.52813       .     S
C225  C224   1.52813       .     S
C224  C231   1.53455       .     S
C231  C224   1.53455       .     S
C224  C237   1.54096       .     S
C237  C224   1.54096       .     S
C225  C226   1.39924       .     S
C226  C225   1.39924       .     S
C225  C230   1.38519       .     S
C230  C225   1.38519       .     S
C226  C227   1.38733       .     S
C227  C226   1.38733       .     S
C226  H246   0.92900       .     S
H246  C226   0.92900       .     S
C227  C228   1.37371       .     S
C228  C227   1.37371       .     S
C227  H247   0.93268       .     S
H247  C227   0.93268       .     S
C228  C229   1.37871       .     S
C229  C228   1.37871       .     S
C228  H248   0.93265       .     S
H248  C228   0.93265       .     S
C229  C230   1.38385       .     S
C230  C229   1.38385       .     S
C229  H249   0.94068       .     S
H249  C229   0.94068       .     S
C230  H250   0.92936       .     S
H250  C230   0.92936       .     S
C231  C232   1.39140       .     S
C232  C231   1.39140       .     S
C231  C236   1.39611       .     S
C236  C231   1.39611       .     S
C232  C233   1.38004       .     S
C233  C232   1.38004       .     S
C232  H251   0.93183       .     S
H251  C232   0.93183       .     S
C233  C234   1.39077       .     S
C234  C233   1.39077       .     S
C233  H252   0.93084       .     S
H252  C233   0.93084       .     S
C234  C235   1.37120       .     S
C235  C234   1.37120       .     S
C234  H253   0.93056       .     S
H253  C234   0.93056       .     S
C235  C236   1.39149       .     S
C236  C235   1.39149       .     S
C235  H254   0.93448       .     S
H254  C235   0.93448       .     S
C236  H255   0.92776       .     S
H255  C236   0.92776       .     S
C237  C238   1.39177       .     S
C238  C237   1.39177       .     S
C237  C242   1.37211       .     S
C242  C237   1.37211       .     S
C238  C239   1.39504       .     S
C239  C238   1.39504       .     S
C238  H256   0.92910       .     S
H256  C238   0.92910       .     S
C239  C240   1.37859       .     S
C240  C239   1.37859       .     S
C239  H257   0.93142       .     S
H257  C239   0.93142       .     S
C240  C241   1.37430       .     S
C241  C240   1.37430       .     S
C240  H258   0.92883       .     S
H258  C240   0.92883       .     S
C241  C242   1.39747       .     S
C242  C241   1.39747       .     S
C241  H259   0.92770       .     S
H259  C241   0.92770       .     S
C242  H260   0.93013       .     S
H260  C242   0.93013       .     S
C261  C262   1.58526       .     S
C262  C261   1.58526       .     S
C261  C266   1.33410       .     S
C266  C261   1.33410       .     S
C261  C267   1.74231       .     S
C267  C261   1.74231       .     S
C262  C263   1.42804       .     S
C263  C262   1.42804       .     S
C263  C264   1.39696       .     S
C264  C263   1.39696       .     S
C263  C268   1.35126       .     S
C268  C263   1.35126       .     S
C264  C265   1.45461       .     S
C265  C264   1.45461       .     S
C265  C266   1.42265       .     S
C266  C265   1.42265       .     S
C265  C269   1.52274       .     S
C269  C265   1.52274       .     S
C266  C270   1.48934       .     S
C270  C266   1.48934       .     S
C270  C271   1.67706       .     S
C271  C270   1.67706       .     S
C270  C272   1.58079       .     S
C272  C270   1.58079       .     S
S273  O274   1.45624       .     S
O274  S273   1.45624       .     S
S273  O275   1.45630       .     S
O275  S273   1.45630       .     S
S273  O276   1.45146       .     S
O276  S273   1.45146       .     S
S273  C278   1.76285       .     S
C278  S273   1.76285       .     S
C277  C278   1.37012       .     S
C278  C277   1.37012       .     S
C277  C287   1.40184       .     S
C287  C277   1.40184       .     S
C277  H291   0.93168       .     S
H291  C277   0.93168       .     S
C278  C279   1.39890       .     S
C279  C278   1.39890       .     S
C279  C280   1.37053       .     S
C280  C279   1.37053       .     S
C279  H292   0.93110       .     S
H292  C279   0.93110       .     S
C280  C288   1.42560       .     S
C288  C280   1.42560       .     S
C280  H293   0.93592       .     S
H293  C280   0.93592       .     S
C281  C282   1.33735       .     S
C282  C281   1.33735       .     S
C281  C290   1.42664       .     S
C290  C281   1.42664       .     S
C281  H294   0.96418       .     S
H294  C281   0.96418       .     S
C282  C283   1.49214       .     S
C283  C282   1.49214       .     S
C282  H295   0.94160       .     S
H295  C282   0.94160       .     S
C283  C284   1.31067       .     S
C284  C283   1.31067       .     S
C283  H296   0.89359       .     S
H296  C283   0.89359       .     S
C284  C289   1.45915       .     S
C289  C284   1.45915       .     S
C284  H297   0.89405       .     S
H297  C284   0.89405       .     S
C285  C287   1.41812       .     S
C287  C285   1.41812       .     S
C285  C289   1.36099       .     S
C289  C285   1.36099       .     S
C285  H298   0.93884       .     S
H298  C285   0.93884       .     S
C286  C288   1.39450       .     S
C288  C286   1.39450       .     S
C286  C290   1.45478       .     S
C290  C286   1.45478       .     S
C286  H299   0.93124       .     S
H299  C286   0.93124       .     S
C287  C288   1.42547       .     S
C288  C287   1.42547       .     S
C289  C290   1.45180       .     S
C290  C289   1.45180       .     S
C300  C301   1.56633       .     S
C301  C300   1.56633       .     S
C300  C302   1.47657       .     S
C302  C300   1.47657       .     S
C300  C303   1.48523       .     S
C303  C300   1.48523       .     S
C301  H309   0.96014       .     S
H309  C301   0.96014       .     S
C301  H310   0.96081       .     S
H310  C301   0.96081       .     S
C301  H311   0.96022       .     S
H311  C301   0.96022       .     S
C302  C306   1.52068       .     S
C306  C302   1.52068       .     S
C302  H312   0.92924       .     S
H312  C302   0.92924       .     S
C303  C304   1.61675   1_655     S
C304  C303   1.61675   1_455     S
C303  H313   0.93168       .     S
H313  C303   0.93168       .     S
C304  C305   1.46701       .     S
C305  C304   1.46701       .     S
C304  C308   1.36759       .     S
C308  C304   1.36759       .     S
C305  C306   1.40511   1_455     S
C306  C305   1.40511   1_655     S
C305  H314   0.93216       .     S
H314  C305   0.93216       .     S
C306  C307   1.32426       .     S
C307  C306   1.32426       .     S
C307  H315   0.95999       .     S
H315  C307   0.95999       .     S
C307  H316   0.95792       .     S
H316  C307   0.95792       .     S
C307  H317   0.95880       .     S
H317  C307   0.95880       .     S
C308  H318   0.95943       .     S
H318  C308   0.95943       .     S
C308  H319   0.95897       .     S
H319  C308   0.95897       .     S
C308  H320   0.96153       .     S
H320  C308   0.96153       .     S
S321  O322   1.46338       .     S
O322  S321   1.46338       .     S
S321  O323   1.45289       .     S
O323  S321   1.45289       .     S
S321  O324   1.45339       .     S
O324  S321   1.45339       .     S
S321  C326   1.76899       .     S
C326  S321   1.76899       .     S
C325  C326   1.35934       .     S
C326  C325   1.35934       .     S
C325  C335   1.43120       .     S
C335  C325   1.43120       .     S
C325  H339   0.93212       .     S
H339  C325   0.93212       .     S
C326  C327   1.42264       .     S
C327  C326   1.42264       .     S
C327  C328   1.35580       .     S
C328  C327   1.35580       .     S
C327  H340   0.93469       .     S
H340  C327   0.93469       .     S
C328  C336   1.43826       .     S
C336  C328   1.43826       .     S
C328  H341   0.92912       .     S
H341  C328   0.92912       .     S
C329  C330   1.35200       .     S
C330  C329   1.35200       .     S
C329  C338   1.43507       .     S
C338  C329   1.43507       .     S
C329  H342   0.91692       .     S
H342  C329   0.91692       .     S
C330  C331   1.41997       .     S
C331  C330   1.41997       .     S
C330  H343   0.92517       .     S
H343  C330   0.92517       .     S
C331  C332   1.36274       .     S
C332  C331   1.36274       .     S
C331  H344   0.92546       .     S
H344  C331   0.92546       .     S
C332  C337   1.43344       .     S
C337  C332   1.43344       .     S
C332  H345   0.94076       .     S
H345  C332   0.94076       .     S
C333  C335   1.39785       .     S
C335  C333   1.39785       .     S
C333  C337   1.39721       .     S
C337  C333   1.39721       .     S
C333  H346   0.92735       .     S
H346  C333   0.92735       .     S
C334  C336   1.40513       .     S
C336  C334   1.40513       .     S
C334  C338   1.38123       .     S
C338  C334   1.38123       .     S
C334  H347   0.92734       .     S
H347  C334   0.92734       .     S
C335  C336   1.42115       .     S
C336  C335   1.42115       .     S
C337  C338   1.44699       .     S
C338  C337   1.44699       .     S
S348  O349   1.45820       .     S
O349  S348   1.45820       .     S
S348  O350   1.46442       .     S
O350  S348   1.46442       .     S
S348  O351   1.45478       .     S
O351  S348   1.45478       .     S
S348  C353   1.76208       .     S
C353  S348   1.76208       .     S
C352  C353   1.35277       .     S
C353  C352   1.35277       .     S
C352  C362   1.41922       .     S
C362  C352   1.41922       .     S
C352  H366   0.92966       .     S
H366  C352   0.92966       .     S
C353  C354   1.41379       .     S
C354  C353   1.41379       .     S
C354  C355   1.36906       .     S
C355  C354   1.36906       .     S
C354  H367   0.93114       .     S
H367  C354   0.93114       .     S
C355  C363   1.40480       .     S
C363  C355   1.40480       .     S
C355  H368   0.93687       .     S
H368  C355   0.93687       .     S
C356  C357   1.39940       .     S
C357  C356   1.39940       .     S
C356  C365   1.44993   1_554     S
C365  C356   1.44993   1_556     S
C356  H369   0.92038       .     S
H369  C356   0.92038       .     S
C357  C358   1.31623       .     S
C358  C357   1.31623       .     S
C357  H370   0.92884       .     S
H370  C357   0.92884       .     S
C358  C359   1.33776   1_554     S
C359  C358   1.33776   1_556     S
C358  H371   0.93649       .     S
H371  C358   0.93649       .     S
C359  C364   1.42651       .     S
C364  C359   1.42651       .     S
C359  H372   0.92852       .     S
H372  C359   0.92852       .     S
C360  C362   1.40449       .     S
C362  C360   1.40449       .     S
C360  C364   1.36972       .     S
C364  C360   1.36972       .     S
C360  H373   0.92895       .     S
H373  C360   0.92895       .     S
C361  C363   1.39720       .     S
C363  C361   1.39720       .     S
C361  C365   1.40609       .     S
C365  C361   1.40609       .     S
C361  H374   0.93642       .     S
H374  C361   0.93642       .     S
C362  C363   1.43285       .     S
C363  C362   1.43285       .     S
C364  C365   1.43560       .     S
C365  C364   1.43560       .     S
N375  C376   1.49907       .     S
C376  N375   1.49907       .     S
N375  H395   0.93100       .     S
H395  N375   0.93100       .     S
N375  H396   0.84249       .     S
H396  N375   0.84249       .     S
N375  H397   1.07058       .     S
H397  N375   1.07058       .     S
C376  C377   1.53764       .     S
C377  C376   1.53764       .     S
C376  C383   1.54607       .     S
C383  C376   1.54607       .     S
C376  C389   1.52394       .     S
C389  C376   1.52394       .     S
C377  C378   1.39725       .     S
C378  C377   1.39725       .     S
C377  C382   1.38620       .     S
C382  C377   1.38620       .     S
C378  C379   1.38141       .     S
C379  C378   1.38141       .     S
C378  H398   0.92755       .     S
H398  C378   0.92755       .     S
C379  C380   1.39106       .     S
C380  C379   1.39106       .     S
C379  H399   0.92831       .     S
H399  C379   0.92831       .     S
C380  C381   1.37978       .     S
C381  C380   1.37978       .     S
C380  H400   0.92657       .     S
H400  C380   0.92657       .     S
C381  C382   1.40465       .     S
C382  C381   1.40465       .     S
C381  H401   0.92783       .     S
H401  C381   0.92783       .     S
C382  H402   0.92990       .     S
H402  C382   0.92990       .     S
C383  C384   1.39014       .     S
C384  C383   1.39014       .     S
C383  C388   1.38654       .     S
C388  C383   1.38654       .     S
C384  C385   1.39536       .     S
C385  C384   1.39536       .     S
C384  H403   0.93182       .     S
H403  C384   0.93182       .     S
C385  C386   1.38752       .     S
C386  C385   1.38752       .     S
C385  H404   0.92651       .     S
H404  C385   0.92651       .     S
C386  C387   1.36892       .     S
C387  C386   1.36892       .     S
C386  H405   0.92791       .     S
H405  C386   0.92791       .     S
C387  C388   1.39888       .     S
C388  C387   1.39888       .     S
C387  H406   0.93289       .     S
H406  C387   0.93289       .     S
C388  H407   0.93169       .     S
H407  C388   0.93169       .     S
C389  C390   1.39910       .     S
C390  C389   1.39910       .     S
C389  C394   1.39334       .     S
C394  C389   1.39334       .     S
C390  C391   1.39465   1_556     S
C391  C390   1.39465   1_554     S
C390  H408   0.92717       .     S
H408  C390   0.92717       .     S
C391  C392   1.33134       .     S
C392  C391   1.33134       .     S
C391  H409   0.92843       .     S
H409  C391   0.92843       .     S
C392  C393   1.39862   1_554     S
C393  C392   1.39862   1_556     S
C392  H410   0.93242       .     S
H410  C392   0.93242       .     S
C393  C394   1.40301       .     S
C394  C393   1.40301       .     S
C393  H411   0.92814   1_655     S
H411  C393   0.92814   1_455     S
C394  H412   0.92735       .     S
H412  C394   0.92735       .     S
N413  C414   1.51627       .     S
C414  N413   1.51627       .     S
N413  H433   0.97869       .     S
H433  N413   0.97869       .     S
N413  H434   0.71079   1_455     S
H434  N413   0.71079   1_655     S
N413  H435   0.93094   1_455     S
H435  N413   0.93094   1_655     S
C414  C415   1.53442       .     S
C415  C414   1.53442       .     S
C414  C421   1.53745   1_455     S
C421  C414   1.53745   1_655     S
C414  C427   1.53135       .     S
C427  C414   1.53135       .     S
C415  C416   1.39267       .     S
C416  C415   1.39267       .     S
C415  C420   1.39856       .     S
C420  C415   1.39856       .     S
C416  C417   1.39401       .     S
C417  C416   1.39401       .     S
C416  H436   0.93446       .     S
H436  C416   0.93446       .     S
C417  C418   1.37376       .     S
C418  C417   1.37376       .     S
C417  H437   0.93218       .     S
H437  C417   0.93218       .     S
C418  C419   1.39049       .     S
C419  C418   1.39049       .     S
C418  H438   0.92886       .     S
H438  C418   0.92886       .     S
C419  C420   1.38677       .     S
C420  C419   1.38677       .     S
C419  H439   0.93306       .     S
H439  C419   0.93306       .     S
C420  H440   0.92888   1_455     S
H440  C420   0.92887   1_655     S
C421  C422   1.39454   1_655     S
C422  C421   1.39454   1_455     S
C421  C426   1.39113       .     S
C426  C421   1.39113       .     S
C422  C423   1.40054   1_455     S
C423  C422   1.40054   1_655     S
C422  H441   0.93077       .     S
H441  C422   0.93077       .     S
C423  C424   1.38774       .     S
C424  C423   1.38774       .     S
C423  H442   0.93386       .     S
H442  C423   0.93386       .     S
C424  C425   1.38009       .     S
C425  C424   1.38009       .     S
C424  H443   0.93131       .     S
H443  C424   0.93131       .     S
C425  C426   1.39161       .     S
C426  C425   1.39161       .     S
C425  H444   0.92724       .     S
H444  C425   0.92724       .     S
C426  H445   0.93104       .     S
H445  C426   0.93104       .     S
C427  C428   1.38755       .     S
C428  C427   1.38755       .     S
C427  C432   1.41397       .     S
C432  C427   1.41397       .     S
C428  C429   1.39823       .     S
C429  C428   1.39823       .     S
C428  H446   0.92729       .     S
H446  C428   0.92729       .     S
C429  C430   1.37968       .     S
C430  C429   1.37968       .     S
C429  H447   0.92498       .     S
H447  C429   0.92498       .     S
C430  C431   1.40582       .     S
C431  C430   1.40582       .     S
C430  H448   0.93296       .     S
H448  C430   0.93296       .     S
C431  C432   1.39096       .     S
C432  C431   1.39096       .     S
C431  H449   0.92478       .     S
H449  C431   0.92478       .     S
C432  H450   0.92927       .     S
H450  C432   0.92927       .     S
N451  C452   1.52200       .     S
C452  N451   1.52200       .     S
N451  H471   0.77777       .     S
H471  N451   0.77777       .     S
N451  H472   0.86476   1_455     S
H472  N451   0.86476   1_655     S
N451  H473   0.72867       .     S
H473  N451   0.72867       .     S
C452  C453   1.53515       .     S
C453  C452   1.53515       .     S
C452  C459   1.52917       .     S
C459  C452   1.52917       .     S
C452  C465   1.53325       .     S
C465  C452   1.53325       .     S
C453  C454   1.40501   1_455     S
C454  C453   1.40501   1_655     S
C453  C458   1.39207       .     S
C458  C453   1.39207       .     S
C454  C455   1.39355       .     S
C455  C454   1.39355       .     S
C454  H474   0.92986       .     S
H474  C454   0.92986       .     S
C455  C456   1.39086   1_655     S
C456  C455   1.39086   1_455     S
C455  H475   0.92984       .     S
H475  C455   0.92984       .     S
C456  C457   1.37962       .     S
C457  C456   1.37962       .     S
C456  H476   0.92818       .     S
H476  C456   0.92818       .     S
C457  C458   1.38763       .     S
C458  C457   1.38763       .     S
C457  H477   0.92437       .     S
H477  C457   0.92437       .     S
C458  H478   0.92219       .     S
H478  C458   0.92219       .     S
C459  C460   1.39804       .     S
C460  C459   1.39804       .     S
C459  C464   1.38945       .     S
C464  C459   1.38945       .     S
C460  C461   1.37852       .     S
C461  C460   1.37852       .     S
C460  H479   0.92830       .     S
H479  C460   0.92830       .     S
C461  C462   1.39745       .     S
C462  C461   1.39745       .     S
C461  H480   0.93527       .     S
H480  C461   0.93527       .     S
C462  C463   1.37301       .     S
C463  C462   1.37301       .     S
C462  H481   0.93121       .     S
H481  C462   0.93121       .     S
C463  C464   1.39402       .     S
C464  C463   1.39402       .     S
C463  H482   0.92668       .     S
H482  C463   0.92668       .     S
C464  H483   0.92995       .     S
H483  C464   0.92995       .     S
C465  C466   1.39233       .     S
C466  C465   1.39233       .     S
C465  C470   1.38940       .     S
C470  C465   1.38940       .     S
C466  C467   1.39562       .     S
C467  C466   1.39562       .     S
C466  H484   0.92824       .     S
H484  C466   0.92824       .     S
C467  C468   1.38361       .     S
C468  C467   1.38361       .     S
C467  H485   0.92501   1_455     S
H485  C467   0.92501   1_655     S
C468  C469   1.38157       .     S
C469  C468   1.38157       .     S
C468  H486   0.93288       .     S
H486  C468   0.93288       .     S
C469  C470   1.38135       .     S
C470  C469   1.38135       .     S
C469  H487   0.92936       .     S
H487  C469   0.92936       .     S
C470  H488   0.93364       .     S
H488  C470   0.93364       .     S
N489  C490   1.50488       .     S
C490  N489   1.50488       .     S
N489  H509   0.84056       .     S
H509  N489   0.84056       .     S
N489  H510   0.98420       .     S
H510  N489   0.98420       .     S
N489  H511   0.94941       .     S
H511  N489   0.94941       .     S
C490  C491   1.53753       .     S
C491  C490   1.53753       .     S
C490  C497   1.53456       .     S
C497  C490   1.53456       .     S
C490  C503   1.53137       .     S
C503  C490   1.53137       .     S
C491  C492   1.39587       .     S
C492  C491   1.39587       .     S
C491  C496   1.38895       .     S
C496  C491   1.38895       .     S
C492  C493   1.40374       .     S
C493  C492   1.40374       .     S
C492  H512   0.92937       .     S
H512  C492   0.92937       .     S
C493  C494   1.38784       .     S
C494  C493   1.38784       .     S
C493  H513   0.92996       .     S
H513  C493   0.92996       .     S
C494  C495   1.38161       .     S
C495  C494   1.38161       .     S
C494  H514   0.92829       .     S
H514  C494   0.92829       .     S
C495  C496   1.39201       .     S
C496  C495   1.39201       .     S
C495  H515   0.93104       .     S
H515  C495   0.93104       .     S
C496  H516   0.93509       .     S
H516  C496   0.93509       .     S
C497  C498   1.39576       .     S
C498  C497   1.39576       .     S
C497  C502   1.39804       .     S
C502  C497   1.39804       .     S
C498  C499   1.39400       .     S
C499  C498   1.39400       .     S
C498  H517   0.92879       .     S
H517  C498   0.92879       .     S
C499  C500   1.39571       .     S
C500  C499   1.39571       .     S
C499  H518   0.92629       .     S
H518  C499   0.92629       .     S
C500  C501   1.35915       .     S
C501  C500   1.35915       .     S
C500  H519   0.93814       .     S
H519  C500   0.93814       .     S
C501  C502   1.39435       .     S
C502  C501   1.39435       .     S
C501  H520   0.93120       .     S
H520  C501   0.93120       .     S
C502  H521   0.93226       .     S
H521  C502   0.93226       .     S
C503  C504   1.38645       .     S
C504  C503   1.38645       .     S
C503  C508   1.39176       .     S
C508  C503   1.39176       .     S
C504  C505   1.40296       .     S
C505  C504   1.40296       .     S
C504  H522   0.92671       .     S
H522  C504   0.92671       .     S
C505  C506   1.36716       .     S
C506  C505   1.36716       .     S
C505  H523   0.93131       .     S
H523  C505   0.93131       .     S
C506  C507   1.38124       .     S
C507  C506   1.38124       .     S
C506  H524   0.93024       .     S
H524  C506   0.93024       .     S
C507  C508   1.39644       .     S
C508  C507   1.39644       .     S
C507  H525   0.93361       .     S
H525  C507   0.93361       .     S
C508  H526   0.93295       .     S
H526  C508   0.93295       .     S
S527  O528   1.46145       .     S
O528  S527   1.46145       .     S
S527  O529   1.45621       .     S
O529  S527   1.45621       .     S
S527  O530   1.46131   1_655     S
O530  S527   1.46131   1_455     S
S527  C532   1.76319       .     S
C532  S527   1.76319       .     S
C531  C532   1.36822       .     S
C532  C531   1.36822       .     S
C531  C541   1.42944       .     S
C541  C531   1.42944       .     S
C531  H545   0.92873       .     S
H545  C531   0.92873       .     S
C532  C533   1.42405   1_655     S
C533  C532   1.42405   1_455     S
C533  C534   1.36283       .     S
C534  C533   1.36283       .     S
C533  H546   0.93141       .     S
H546  C533   0.93141       .     S
C534  C542   1.41992       .     S
C542  C534   1.41992       .     S
C534  H547   0.93050       .     S
H547  C534   0.93050       .     S
C535  C536   1.36791   1_455     S
C536  C535   1.36791   1_655     S
C535  C544   1.43610       .     S
C544  C535   1.43610       .     S
C535  H548   0.93088       .     S
H548  C535   0.93088       .     S
C536  C537   1.39801       .     S
C537  C536   1.39801       .     S
C536  H549   0.92316   1_655     S
H549  C536   0.92317   1_455     S
C537  C538   1.37213       .     S
C538  C537   1.37213       .     S
C537  H550   0.93116       .     S
H550  C537   0.93116       .     S
C538  C543   1.43410       .     S
C543  C538   1.43410       .     S
C538  H551   0.93528       .     S
H551  C538   0.93528       .     S
C539  C541   1.40310       .     S
C541  C539   1.40310       .     S
C539  C543   1.40144       .     S
C543  C539   1.40144       .     S
C539  H552   0.93259       .     S
H552  C539   0.93259       .     S
C540  C542   1.40468       .     S
C542  C540   1.40468       .     S
C540  C544   1.39520       .     S
C544  C540   1.39520       .     S
C540  H553   0.93347       .     S
H553  C540   0.93347       .     S
C541  C542   1.43121   1_655     S
C542  C541   1.43122   1_455     S
C543  C544   1.42328   1_655     S
C544  C543   1.42328   1_455     S
S554  O555   1.45989       .     S
O555  S554   1.45989       .     S
S554  O556   1.45318       .     S
O556  S554   1.45318       .     S
S554  O557   1.45942       .     S
O557  S554   1.45942       .     S
S554  C559   1.77006       .     S
C559  S554   1.77006       .     S
C558  C559   1.36034       .     S
C559  C558   1.36034       .     S
C558  C568   1.43590       .     S
C568  C558   1.43590       .     S
C558  H572   0.92636       .     S
H572  C558   0.92636       .     S
C559  C560   1.42002       .     S
C560  C559   1.42002       .     S
C560  C561   1.37063       .     S
C561  C560   1.37063       .     S
C560  H573   0.92808       .     S
H573  C560   0.92808       .     S
C561  C569   1.42404       .     S
C569  C561   1.42404       .     S
C561  H574   0.92916       .     S
H574  C561   0.92916       .     S
C562  C563   1.35842       .     S
C563  C562   1.35842       .     S
C562  C571   1.43758       .     S
C571  C562   1.43758       .     S
C562  H575   0.92766       .     S
H575  C562   0.92766       .     S
C563  C564   1.41086       .     S
C564  C563   1.41086       .     S
C563  H576   0.92894       .     S
H576  C563   0.92894       .     S
C564  C565   1.36405       .     S
C565  C564   1.36405       .     S
C564  H577   0.92901       .     S
H577  C564   0.92901       .     S
C565  C570   1.41329       .     S
C570  C565   1.41329       .     S
C565  H578   0.92634       .     S
H578  C565   0.92634       .     S
C566  C568   1.38513       .     S
C568  C566   1.38513       .     S
C566  C570   1.40743       .     S
C570  C566   1.40743       .     S
C566  H579   0.92683       .     S
H579  C566   0.92683       .     S
C567  C569   1.40165       .     S
C569  C567   1.40165       .     S
C567  C571   1.40644       .     S
C571  C567   1.40644       .     S
C567  H580   0.93109       .     S
H580  C567   0.93109       .     S
C568  C569   1.43040       .     S
C569  C568   1.43040       .     S
C570  C571   1.42754       .     S
C571  C570   1.42754       .     S
S581  O582   1.45676       .     S
O582  S581   1.45676       .     S
S581  O583   1.45915       .     S
O583  S581   1.45915       .     S
S581  O584   1.45291       .     S
O584  S581   1.45291       .     S
S581  C586   1.77105       .     S
C586  S581   1.77105       .     S
C585  C586   1.36020       .     S
C586  C585   1.36020       .     S
C585  C595   1.43226       .     S
C595  C585   1.43226       .     S
C585  H599   0.93463       .     S
H599  C585   0.93463       .     S
C586  C587   1.41022       .     S
C587  C586   1.41022       .     S
C587  C588   1.36171       .     S
C588  C587   1.36171       .     S
C587  H600   0.93363       .     S
H600  C587   0.93363       .     S
C588  C596   1.41136       .     S
C596  C588   1.41136       .     S
C588  H601   0.92770       .     S
H601  C588   0.92770       .     S
C589  C590   1.37975       .     S
C590  C589   1.37975       .     S
C589  C598   1.43674       .     S
C598  C589   1.43674       .     S
C589  H602   0.93117       .     S
H602  C589   0.93117       .     S
C590  C591   1.35630       .     S
C591  C590   1.35630       .     S
C590  H603   0.93763       .     S
H603  C590   0.93763       .     S
C591  C592   1.37842       .     S
C592  C591   1.37842       .     S
C591  H604   0.91490       .     S
H604  C591   0.91490       .     S
C592  C597   1.43021       .     S
C597  C592   1.43021       .     S
C592  H605   0.92580       .     S
H605  C592   0.92580       .     S
C593  C595   1.39705       .     S
C595  C593   1.39705       .     S
C593  C597   1.40518       .     S
C597  C593   1.40518       .     S
C593  H606   0.93143       .     S
H606  C593   0.93143       .     S
C594  C596   1.40066       .     S
C596  C594   1.40066       .     S
C594  C598   1.38031       .     S
C598  C594   1.38031       .     S
C594  H607   0.93527       .     S
H607  C594   0.93527       .     S
C595  C596   1.42793       .     S
C596  C595   1.42793       .     S
C597  C598   1.43350       .     S
C598  C597   1.43350       .     S
O557  H20    2.02438       .     S
H20   O557   2.02438       .     S
O582  H21    1.76989       .     S
H21   O582   1.76989       .     S
O350  H22    2.24540       .     S
H22   O350   2.24540       .     S
O556  H140   1.81510       .     S
H140  O556   1.81510       .     S
O322  H141   2.04231       .     S
H141  O322   2.04231       .     S
O583  H142   1.75394       .     S
H142  O583   1.75394       .     S
O351  H178   1.73027       .     S
H178  O351   1.73027       .     S
O323  H179   2.30890       .     S
H179  O323   2.30890       .     S
O555  H180   1.96936       .     S
H180  O555   1.96936       .     S
O324  H243   1.93416       .     S
H243  O324   1.93416       .     S
O349  H244   2.02206       .     S
H244  O349   2.02206       .     S
O584  H245   1.88372       .     S
H245  O584   1.88372       .     S
O96   H395   1.80503       .     S
H395  O96    1.80503       .     S
O276  H396   2.00459       .     S
H396  O276   2.00459       .     S
O197  H397   1.69990   1_455     S
H397  O197   1.69990   1_655     S
O198  H433   1.85466       .     S
H433  O198   1.85466       .     S
O274  H434   2.14790       .     S
H434  O274   2.14790       .     S
O528  H435   1.87708       .     S
H435  O528   1.87708       .     S
O530  H471   2.09021       .     S
H471  O530   2.09021       .     S
O94   H472   2.07610       .     S
H472  O94    2.07610       .     S
O199  H473   2.11850       .     S
H473  O199   2.11850       .     S
O529  H509   1.90526       .     S
H509  O529   1.90526       .     S
O275  H510   1.81479       .     S
H510  O275   1.81479       .     S
O95   H511   1.84524       .     S
H511  O95    1.84524       .     S
C1    N0     1.49777       .     S
N0    C1     1.49777       .     S
H20   N0     0.77295       .     S
N0    H20    0.77295       .     S
H21   N0     0.98671       .     S
N0    H21    0.98671       .     S
H22   N0     0.66801       .     S
N0    H22    0.66801       .     S
C2    C1     1.53575       .     S
C1    C2     1.53575       .     S
C8    C1     1.53384       .     S
C1    C8     1.53384       .     S
C14   C1     1.52675       .     S
C1    C14    1.52675       .     S
C3    C2     1.38085       .     S
C2    C3     1.38085       .     S
C7    C2     1.42084       .     S
C2    C7     1.42084       .     S
C4    C3     1.39247       .     S
C3    C4     1.39247       .     S
H23   C3     0.92970       .     S
C3    H23    0.92970       .     S
C5    C4     1.39472       .     S
C4    C5     1.39472       .     S
H24   C4     0.92607       .     S
C4    H24    0.92607       .     S
C6    C5     1.37441       .     S
C5    C6     1.37441       .     S
H25   C5     0.93010       .     S
C5    H25    0.93010       .     S
C7    C6     1.38531       .     S
C6    C7     1.38531       .     S
H26   C6     0.93371   1_554     S
C6    H26    0.93371   1_556     S
H27   C7     0.92848       .     S
C7    H27    0.92848       .     S
C9    C8     1.40428       .     S
C8    C9     1.40428       .     S
C13   C8     1.37370       .     S
C8    C13    1.37370       .     S
C10   C9     1.39516       .     S
C9    C10    1.39516       .     S
H28   C9     0.93298       .     S
C9    H28    0.93298       .     S
C11   C10    1.39333       .     S
C10   C11    1.39333       .     S
H29   C10    0.93572       .     S
C10   H29    0.93572       .     S
C12   C11    1.39018       .     S
C11   C12    1.39018       .     S
H30   C11    0.92902       .     S
C11   H30    0.92902       .     S
C13   C12    1.39699       .     S
C12   C13    1.39699       .     S
H31   C12    0.92560       .     S
C12   H31    0.92560       .     S
H32   C13    0.93437       .     S
C13   H32    0.93437       .     S
C15   C14    1.37860       .     S
C14   C15    1.37860       .     S
C19   C14    1.38219       .     S
C14   C19    1.38219       .     S
C16   C15    1.39287       .     S
C15   C16    1.39287       .     S
H33   C15    0.92523       .     S
C15   H33    0.92523       .     S
C17   C16    1.35522       .     S
C16   C17    1.35522       .     S
H34   C16    0.93527       .     S
C16   H34    0.93527       .     S
C18   C17    1.36429       .     S
C17   C18    1.36429       .     S
H35   C17    0.92869       .     S
C17   H35    0.92869       .     S
C19   C18    1.39653       .     S
C18   C19    1.39653       .     S
H36   C18    0.92976       .     S
C18   H36    0.92976       .     S
H37   C19    0.93303       .     S
C19   H37    0.93303       .     S
C39   C38    1.37562       .     S
C38   C39    1.37562       .     S
C43   C38    1.40674       .     S
C38   C43    1.40674       .     S
C44   C38    1.48661       .     S
C38   C44    1.48661       .     S
C40   C39    1.37106       .     S
C39   C40    1.37106       .     S
H47   C39    0.92957       .     S
C39   H47    0.92957       .     S
C41   C40    1.40932       .     S
C40   C41    1.40932       .     S
C45   C40    1.49229       .     S
C40   C45    1.49229       .     S
C42   C41    1.38162       .     S
C41   C42    1.38162       .     S
H48   C41    0.93138       .     S
C41   H48    0.93138       .     S
C43   C42    1.36629       .     S
C42   C43    1.36629       .     S
C46   C42    1.47423       .     S
C42   C46    1.47423       .     S
H49   C43    0.92995       .     S
C43   H49    0.92995       .     S
H50   C44    0.95963       .     S
C44   H50    0.95963       .     S
H51   C44    0.96095       .     S
C44   H51    0.96095       .     S
H52   C44    0.96001       .     S
C44   H52    0.96001       .     S
H53   C45    0.96085       .     S
C45   H53    0.96085       .     S
H54   C45    0.96046       .     S
C45   H54    0.96046       .     S
H55   C45    0.95831       .     S
C45   H55    0.95831       .     S
H56   C46    0.96069       .     S
C46   H56    0.96069       .     S
H57   C46    0.96170       .     S
C46   H57    0.96170       .     S
H58   C46    0.96026       .     S
C46   H58    0.96026       .     S
C61   C59    1.78471       .     S
C59   C61    1.78471       .     S
C61   C60    0.72055       .     S
C60   C61    0.72055       .     S
C62   C60    1.68153       .     S
C60   C62    1.68153       .     S
C62   C61    1.07088       .     S
C61   C62    1.07088       .     S
C63   C61    1.36760       .     S
C61   C63    1.36760       .     S
C63   C62    1.64151       .     S
C62   C63    1.64151       .     S
C65   C64    1.35417       .     S
C64   C65    1.35417       .     S
C71   C64    1.09310       .     S
C64   C71    1.09310       .     S
C66   C65    1.46878       .     S
C65   C66    1.46878       .     S
C67   C66    1.42572       .     S
C66   C67    1.42572       .     S
C69   C66    1.58829       .     S
C66   C69    1.58829       .     S
C69   C68    1.20469       .     S
C68   C69    1.20469       .     S
C70   C68    1.50282       .     S
C68   C70    1.50282       .     S
C73   C72    1.57943       .     S
C72   C73    1.57943       .     S
H81   C72    0.96080       .     S
C72   H81    0.96080       .     S
H82   C72    0.96099       .     S
C72   H82    0.96099       .     S
H83   C72    0.95907       .     S
C72   H83    0.95907       .     S
C74   C73    1.38336       .     S
C73   C74    1.38336       .     S
C77   C73    1.34892       .     S
C73   C77    1.34892       .     S
C75   C74    1.50378       .     S
C74   C75    1.50378       .     S
H84   C74    0.92790       .     S
C74   H84    0.92790       .     S
C76   C75    1.35477       .     S
C75   C76    1.35477       .     S
C79   C75    1.45913       .     S
C75   C79    1.45913       .     S
H85   C76    0.95974       .     S
C76   H85    0.95974       .     S
H86   C76    0.95931       .     S
C76   H86    0.95931       .     S
H87   C76    0.96137       .     S
C76   H87    0.96137       .     S
C78   C77    1.56011       .     S
C77   C78    1.56011       .     S
H88   C77    0.92983       .     S
C77   H88    0.92983       .     S
C79   C78    1.38531       .     S
C78   C79    1.38531       .     S
C80   C78    1.27665       .     S
C78   C80    1.27665       .     S
H89   C79    0.93163       .     S
C79   H89    0.93163       .     S
H90   C80    0.96212       .     S
C80   H90    0.96212       .     S
H91   C80    0.96146       .     S
C80   H91    0.96146       .     S
H92   C80    0.95847       .     S
C80   H92    0.95847       .     S
O94   S93    1.45394       .     S
S93   O94    1.45394       .     S
O95   S93    1.45390       .     S
S93   O95    1.45390       .     S
O96   S93    1.46504       .     S
S93   O96    1.46504       .     S
C98   S93    1.76886       .     S
S93   C98    1.76886       .     S
C98   C97    1.35468       .     S
C97   C98    1.35468       .     S
C107  C97    1.42425       .     S
C97   C107   1.42425       .     S
H111  C97    0.92921       .     S
C97   H111   0.92921       .     S
C99   C98    1.42916       .     S
C98   C99    1.42916       .     S
C100  C99    1.36266       .     S
C99   C100   1.36266       .     S
H112  C99    0.93045       .     S
C99   H112   0.93045       .     S
C108  C100   1.42113       .     S
C100  C108   1.42113       .     S
H113  C100   0.92970       .     S
C100  H113   0.92970       .     S
C102  C101   1.34900       .     S
C101  C102   1.34900       .     S
C110  C101   1.44157       .     S
C101  C110   1.44157       .     S
H114  C101   0.92734       .     S
C101  H114   0.92734       .     S
C103  C102   1.42854       .     S
C102  C103   1.42854       .     S
H115  C102   0.93289       .     S
C102  H115   0.93289       .     S
C104  C103   1.39947       .     S
C103  C104   1.39947       .     S
H116  C103   0.93568       .     S
C103  H116   0.93568       .     S
C109  C104   1.42744       .     S
C104  C109   1.42744       .     S
H117  C104   0.93069       .     S
C104  H117   0.93069       .     S
C107  C105   1.39569       .     S
C105  C107   1.39569       .     S
C109  C105   1.41193       .     S
C105  C109   1.41193       .     S
H118  C105   0.92839       .     S
C105  H118   0.92839       .     S
C108  C106   1.41376       .     S
C106  C108   1.41376       .     S
C110  C106   1.38898       .     S
C106  C110   1.38898       .     S
H119  C106   0.92729       .     S
C106  H119   0.92729       .     S
C108  C107   1.43152       .     S
C107  C108   1.43152       .     S
C110  C109   1.42541       .     S
C109  C110   1.42541       .     S
C121  N120   1.50615       .     S
N120  C121   1.50615       .     S
H140  N120   0.96950       .     S
N120  H140   0.96950       .     S
H141  N120   0.69351       .     S
N120  H141   0.69351       .     S
H142  N120   1.01044       .     S
N120  H142   1.01044       .     S
C122  C121   1.53159       .     S
C121  C122   1.53159       .     S
C128  C121   1.53730       .     S
C121  C128   1.53730       .     S
C134  C121   1.54352       .     S
C121  C134   1.54352       .     S
C123  C122   1.37531       .     S
C122  C123   1.37531       .     S
C127  C122   1.38558       .     S
C122  C127   1.38558       .     S
C124  C123   1.40072       .     S
C123  C124   1.40072       .     S
H143  C123   0.92836       .     S
C123  H143   0.92836       .     S
C125  C124   1.36887       .     S
C124  C125   1.36887       .     S
H144  C124   0.93024       .     S
C124  H144   0.93024       .     S
C126  C125   1.37143       .     S
C125  C126   1.37143       .     S
H145  C125   0.92919       .     S
C125  H145   0.92919       .     S
C127  C126   1.39718       .     S
C126  C127   1.39718       .     S
H146  C126   0.92610       .     S
C126  H146   0.92610       .     S
H147  C127   0.92959       .     S
C127  H147   0.92959       .     S
C129  C128   1.39359       .     S
C128  C129   1.39359       .     S
C133  C128   1.39581       .     S
C128  C133   1.39581       .     S
C130  C129   1.39931       .     S
C129  C130   1.39931       .     S
H148  C129   0.93715       .     S
C129  H148   0.93715       .     S
C131  C130   1.37229       .     S
C130  C131   1.37229       .     S
H149  C130   0.92096       .     S
C130  H149   0.92096       .     S
C132  C131   1.38242       .     S
C131  C132   1.38242       .     S
H150  C131   0.92607       .     S
C131  H150   0.92607       .     S
C133  C132   1.38973       .     S
C132  C133   1.38973       .     S
H151  C132   0.92385       .     S
C132  H151   0.92385       .     S
H152  C133   0.92630       .     S
C133  H152   0.92630       .     S
C135  C134   1.38407       .     S
C134  C135   1.38407       .     S
C139  C134   1.39144       .     S
C134  C139   1.39144       .     S
C136  C135   1.40828       .     S
C135  C136   1.40828       .     S
H153  C135   0.92784       .     S
C135  H153   0.92784       .     S
C137  C136   1.35634       .     S
C136  C137   1.35634       .     S
H154  C136   0.92878       .     S
C136  H154   0.92878       .     S
C138  C137   1.41127       .     S
C137  C138   1.41127       .     S
H155  C137   0.92631       .     S
C137  H155   0.92631       .     S
C139  C138   1.38719       .     S
C138  C139   1.38719       .     S
H156  C138   0.92910       .     S
C138  H156   0.92910       .     S
H157  C139   0.93148       .     S
C139  H157   0.93148       .     S
C159  N158   1.51991       .     S
N158  C159   1.51991       .     S
H178  N158   1.05873       .     S
N158  H178   1.05873       .     S
H179  N158   0.57988       .     S
N158  H179   0.57988       .     S
H180  N158   0.90266       .     S
N158  H180   0.90266       .     S
C160  C159   1.53099       .     S
C159  C160   1.53099       .     S
C166  C159   1.53645       .     S
C159  C166   1.53645       .     S
C172  C159   1.52698       .     S
C159  C172   1.52698       .     S
C161  C160   1.39836       .     S
C160  C161   1.39836       .     S
C165  C160   1.39613       .     S
C160  C165   1.39613       .     S
C162  C161   1.38961       .     S
C161  C162   1.38961       .     S
H181  C161   0.92962       .     S
C161  H181   0.92962       .     S
C163  C162   1.39011       .     S
C162  C163   1.39011       .     S
H182  C162   0.92891       .     S
C162  H182   0.92891       .     S
C164  C163   1.39942       .     S
C163  C164   1.39942       .     S
H183  C163   0.92439       .     S
C163  H183   0.92439       .     S
C165  C164   1.39324       .     S
C164  C165   1.39324       .     S
H184  C164   0.92559       .     S
C164  H184   0.92559       .     S
H185  C165   0.92827       .     S
C165  H185   0.92827       .     S
C167  C166   1.39898       .     S
C166  C167   1.39898       .     S
C171  C166   1.39969       .     S
C166  C171   1.39969       .     S
C168  C167   1.39689       .     S
C167  C168   1.39689       .     S
H186  C167   0.92570       .     S
C167  H186   0.92570       .     S
C169  C168   1.36857       .     S
C168  C169   1.36857       .     S
H187  C168   0.93522       .     S
C168  H187   0.93522       .     S
C170  C169   1.39694       .     S
C169  C170   1.39694       .     S
H188  C169   0.93207       .     S
C169  H188   0.93207       .     S
C171  C170   1.38412       .     S
C170  C171   1.38412       .     S
H189  C170   0.93088       .     S
C170  H189   0.93088       .     S
H190  C171   0.93013       .     S
C171  H190   0.93013       .     S
C173  C172   1.40453       .     S
C172  C173   1.40453       .     S
C177  C172   1.40613       .     S
C172  C177   1.40613       .     S
C174  C173   1.37136       .     S
C173  C174   1.37136       .     S
H191  C173   0.93299       .     S
C173  H191   0.93299       .     S
C175  C174   1.42285       .     S
C174  C175   1.42285       .     S
H192  C174   0.92993       .     S
C174  H192   0.92993       .     S
C176  C175   1.38603       .     S
C175  C176   1.38603       .     S
H193  C175   0.92975       .     S
C175  H193   0.92975       .     S
C177  C176   1.38673       .     S
C176  C177   1.38673       .     S
H194  C176   0.93928       .     S
C176  H194   0.93928       .     S
H195  C177   0.92877       .     S
C177  H195   0.92877       .     S
O197  S196   1.44754       .     S
S196  O197   1.44754       .     S
O198  S196   1.44363       .     S
S196  O198   1.44363       .     S
O199  S196   1.45327       .     S
S196  O199   1.45327       .     S
C201  S196   1.77580       .     S
S196  C201   1.77580       .     S
C201  C200   1.35370       .     S
C200  C201   1.35370       .     S
C210  C200   1.44100       .     S
C200  C210   1.44100       .     S
H214  C200   0.93019       .     S
C200  H214   0.93019       .     S
C202  C201   1.43153       .     S
C201  C202   1.43153       .     S
C203  C202   1.36584       .     S
C202  C203   1.36584       .     S
H215  C202   0.93343       .     S
C202  H215   0.93343       .     S
C211  C203   1.41329       .     S
C203  C211   1.41329       .     S
H216  C203   0.93275       .     S
C203  H216   0.93275       .     S
C205  C204   1.35494       .     S
C204  C205   1.35494       .     S
C213  C204   1.43306       .     S
C204  C213   1.43306       .     S
H217  C204   0.93091       .     S
C204  H217   0.93091       .     S
C206  C205   1.40357       .     S
C205  C206   1.40357       .     S
H218  C205   0.92766       .     S
C205  H218   0.92766       .     S
C207  C206   1.36485       .     S
C206  C207   1.36485       .     S
H219  C206   0.92616       .     S
C206  H219   0.92616       .     S
C212  C207   1.44014   1_556     S
C207  C212   1.44014   1_554     S
H220  C207   0.92656       .     S
C207  H220   0.92656       .     S
C210  C208   1.40615       .     S
C208  C210   1.40615       .     S
C212  C208   1.39772       .     S
C208  C212   1.39772       .     S
H221  C208   0.92336       .     S
C208  H221   0.92336       .     S
C211  C209   1.42077       .     S
C209  C211   1.42077       .     S
C213  C209   1.39198   1_554     S
C209  C213   1.39198   1_556     S
H222  C209   0.93027       .     S
C209  H222   0.93027       .     S
C211  C210   1.42514       .     S
C210  C211   1.42514       .     S
C213  C212   1.41218   1_554     S
C212  C213   1.41218   1_556     S
C224  N223   1.51492       .     S
N223  C224   1.51492       .     S
H243  N223   0.86906       .     S
N223  H243   0.86906       .     S
H244  N223   0.72793       .     S
N223  H244   0.72793       .     S
H245  N223   0.98761       .     S
N223  H245   0.98761       .     S
C225  C224   1.52813       .     S
C224  C225   1.52813       .     S
C231  C224   1.53455       .     S
C224  C231   1.53455       .     S
C237  C224   1.54096       .     S
C224  C237   1.54096       .     S
C226  C225   1.39924       .     S
C225  C226   1.39924       .     S
C230  C225   1.38519       .     S
C225  C230   1.38519       .     S
C227  C226   1.38733       .     S
C226  C227   1.38733       .     S
H246  C226   0.92900       .     S
C226  H246   0.92900       .     S
C228  C227   1.37371       .     S
C227  C228   1.37371       .     S
H247  C227   0.93268       .     S
C227  H247   0.93268       .     S
C229  C228   1.37871       .     S
C228  C229   1.37871       .     S
H248  C228   0.93265       .     S
C228  H248   0.93265       .     S
C230  C229   1.38385       .     S
C229  C230   1.38385       .     S
H249  C229   0.94068       .     S
C229  H249   0.94068       .     S
H250  C230   0.92936       .     S
C230  H250   0.92936       .     S
C232  C231   1.39140       .     S
C231  C232   1.39140       .     S
C236  C231   1.39611       .     S
C231  C236   1.39611       .     S
C233  C232   1.38004       .     S
C232  C233   1.38004       .     S
H251  C232   0.93183       .     S
C232  H251   0.93183       .     S
C234  C233   1.39077       .     S
C233  C234   1.39077       .     S
H252  C233   0.93084       .     S
C233  H252   0.93084       .     S
C235  C234   1.37120       .     S
C234  C235   1.37120       .     S
H253  C234   0.93056       .     S
C234  H253   0.93056       .     S
C236  C235   1.39149       .     S
C235  C236   1.39149       .     S
H254  C235   0.93448       .     S
C235  H254   0.93448       .     S
H255  C236   0.92776       .     S
C236  H255   0.92776       .     S
C238  C237   1.39177       .     S
C237  C238   1.39177       .     S
C242  C237   1.37211       .     S
C237  C242   1.37211       .     S
C239  C238   1.39504       .     S
C238  C239   1.39504       .     S
H256  C238   0.92910       .     S
C238  H256   0.92910       .     S
C240  C239   1.37859       .     S
C239  C240   1.37859       .     S
H257  C239   0.93142       .     S
C239  H257   0.93142       .     S
C241  C240   1.37430       .     S
C240  C241   1.37430       .     S
H258  C240   0.92883       .     S
C240  H258   0.92883       .     S
C242  C241   1.39747       .     S
C241  C242   1.39747       .     S
H259  C241   0.92770       .     S
C241  H259   0.92770       .     S
H260  C242   0.93013       .     S
C242  H260   0.93013       .     S
C262  C261   1.58526       .     S
C261  C262   1.58526       .     S
C266  C261   1.33410       .     S
C261  C266   1.33410       .     S
C267  C261   1.74231       .     S
C261  C267   1.74231       .     S
C263  C262   1.42804       .     S
C262  C263   1.42804       .     S
C264  C263   1.39696       .     S
C263  C264   1.39696       .     S
C268  C263   1.35126       .     S
C263  C268   1.35126       .     S
C265  C264   1.45461       .     S
C264  C265   1.45461       .     S
C266  C265   1.42265       .     S
C265  C266   1.42265       .     S
C269  C265   1.52274       .     S
C265  C269   1.52274       .     S
C270  C266   1.48934       .     S
C266  C270   1.48934       .     S
C271  C270   1.67706       .     S
C270  C271   1.67706       .     S
C272  C270   1.58079       .     S
C270  C272   1.58079       .     S
O274  S273   1.45624       .     S
S273  O274   1.45624       .     S
O275  S273   1.45630       .     S
S273  O275   1.45630       .     S
O276  S273   1.45146       .     S
S273  O276   1.45146       .     S
C278  S273   1.76285       .     S
S273  C278   1.76285       .     S
C278  C277   1.37012       .     S
C277  C278   1.37012       .     S
C287  C277   1.40184       .     S
C277  C287   1.40184       .     S
H291  C277   0.93168       .     S
C277  H291   0.93168       .     S
C279  C278   1.39890       .     S
C278  C279   1.39890       .     S
C280  C279   1.37053       .     S
C279  C280   1.37053       .     S
H292  C279   0.93110       .     S
C279  H292   0.93110       .     S
C288  C280   1.42560       .     S
C280  C288   1.42560       .     S
H293  C280   0.93592       .     S
C280  H293   0.93592       .     S
C282  C281   1.33735       .     S
C281  C282   1.33735       .     S
C290  C281   1.42664       .     S
C281  C290   1.42664       .     S
H294  C281   0.96418       .     S
C281  H294   0.96418       .     S
C283  C282   1.49214       .     S
C282  C283   1.49214       .     S
H295  C282   0.94160       .     S
C282  H295   0.94160       .     S
C284  C283   1.31067       .     S
C283  C284   1.31067       .     S
H296  C283   0.89359       .     S
C283  H296   0.89359       .     S
C289  C284   1.45915       .     S
C284  C289   1.45915       .     S
H297  C284   0.89405       .     S
C284  H297   0.89405       .     S
C287  C285   1.41812       .     S
C285  C287   1.41812       .     S
C289  C285   1.36099       .     S
C285  C289   1.36099       .     S
H298  C285   0.93884       .     S
C285  H298   0.93884       .     S
C288  C286   1.39450       .     S
C286  C288   1.39450       .     S
C290  C286   1.45478       .     S
C286  C290   1.45478       .     S
H299  C286   0.93124       .     S
C286  H299   0.93124       .     S
C288  C287   1.42547       .     S
C287  C288   1.42547       .     S
C290  C289   1.45180       .     S
C289  C290   1.45180       .     S
C301  C300   1.56633       .     S
C300  C301   1.56633       .     S
C302  C300   1.47657       .     S
C300  C302   1.47657       .     S
C303  C300   1.48523       .     S
C300  C303   1.48523       .     S
H309  C301   0.96014       .     S
C301  H309   0.96014       .     S
H310  C301   0.96081       .     S
C301  H310   0.96081       .     S
H311  C301   0.96022       .     S
C301  H311   0.96022       .     S
C306  C302   1.52068       .     S
C302  C306   1.52068       .     S
H312  C302   0.92924       .     S
C302  H312   0.92924       .     S
C304  C303   1.61675   1_455     S
C303  C304   1.61675   1_655     S
H313  C303   0.93168       .     S
C303  H313   0.93168       .     S
C305  C304   1.46701       .     S
C304  C305   1.46701       .     S
C308  C304   1.36759       .     S
C304  C308   1.36759       .     S
C306  C305   1.40511   1_655     S
C305  C306   1.40511   1_455     S
H314  C305   0.93216       .     S
C305  H314   0.93216       .     S
C307  C306   1.32426       .     S
C306  C307   1.32426       .     S
H315  C307   0.95999       .     S
C307  H315   0.95999       .     S
H316  C307   0.95792       .     S
C307  H316   0.95792       .     S
H317  C307   0.95880       .     S
C307  H317   0.95880       .     S
H318  C308   0.95943       .     S
C308  H318   0.95943       .     S
H319  C308   0.95897       .     S
C308  H319   0.95897       .     S
H320  C308   0.96153       .     S
C308  H320   0.96153       .     S
O322  S321   1.46338       .     S
S321  O322   1.46338       .     S
O323  S321   1.45289       .     S
S321  O323   1.45289       .     S
O324  S321   1.45339       .     S
S321  O324   1.45339       .     S
C326  S321   1.76899       .     S
S321  C326   1.76899       .     S
C326  C325   1.35934       .     S
C325  C326   1.35934       .     S
C335  C325   1.43120       .     S
C325  C335   1.43120       .     S
H339  C325   0.93212       .     S
C325  H339   0.93212       .     S
C327  C326   1.42264       .     S
C326  C327   1.42264       .     S
C328  C327   1.35580       .     S
C327  C328   1.35580       .     S
H340  C327   0.93469       .     S
C327  H340   0.93469       .     S
C336  C328   1.43826       .     S
C328  C336   1.43826       .     S
H341  C328   0.92912       .     S
C328  H341   0.92912       .     S
C330  C329   1.35200       .     S
C329  C330   1.35200       .     S
C338  C329   1.43507       .     S
C329  C338   1.43507       .     S
H342  C329   0.91692       .     S
C329  H342   0.91692       .     S
C331  C330   1.41997       .     S
C330  C331   1.41997       .     S
H343  C330   0.92517       .     S
C330  H343   0.92517       .     S
C332  C331   1.36274       .     S
C331  C332   1.36274       .     S
H344  C331   0.92546       .     S
C331  H344   0.92546       .     S
C337  C332   1.43344       .     S
C332  C337   1.43344       .     S
H345  C332   0.94076       .     S
C332  H345   0.94076       .     S
C335  C333   1.39785       .     S
C333  C335   1.39785       .     S
C337  C333   1.39721       .     S
C333  C337   1.39721       .     S
H346  C333   0.92735       .     S
C333  H346   0.92735       .     S
C336  C334   1.40513       .     S
C334  C336   1.40513       .     S
C338  C334   1.38123       .     S
C334  C338   1.38123       .     S
H347  C334   0.92734       .     S
C334  H347   0.92734       .     S
C336  C335   1.42115       .     S
C335  C336   1.42115       .     S
C338  C337   1.44699       .     S
C337  C338   1.44699       .     S
O349  S348   1.45820       .     S
S348  O349   1.45820       .     S
O350  S348   1.46442       .     S
S348  O350   1.46442       .     S
O351  S348   1.45478       .     S
S348  O351   1.45478       .     S
C353  S348   1.76208       .     S
S348  C353   1.76208       .     S
C353  C352   1.35277       .     S
C352  C353   1.35277       .     S
C362  C352   1.41922       .     S
C352  C362   1.41922       .     S
H366  C352   0.92966       .     S
C352  H366   0.92966       .     S
C354  C353   1.41379       .     S
C353  C354   1.41379       .     S
C355  C354   1.36906       .     S
C354  C355   1.36906       .     S
H367  C354   0.93114       .     S
C354  H367   0.93114       .     S
C363  C355   1.40480       .     S
C355  C363   1.40480       .     S
H368  C355   0.93687       .     S
C355  H368   0.93687       .     S
C357  C356   1.39940       .     S
C356  C357   1.39940       .     S
C365  C356   1.44993   1_556     S
C356  C365   1.44993   1_554     S
H369  C356   0.92038       .     S
C356  H369   0.92038       .     S
C358  C357   1.31623       .     S
C357  C358   1.31623       .     S
H370  C357   0.92884       .     S
C357  H370   0.92884       .     S
C359  C358   1.33776   1_556     S
C358  C359   1.33776   1_554     S
H371  C358   0.93649       .     S
C358  H371   0.93649       .     S
C364  C359   1.42651       .     S
C359  C364   1.42651       .     S
H372  C359   0.92852       .     S
C359  H372   0.92852       .     S
C362  C360   1.40449       .     S
C360  C362   1.40449       .     S
C364  C360   1.36972       .     S
C360  C364   1.36972       .     S
H373  C360   0.92895       .     S
C360  H373   0.92895       .     S
C363  C361   1.39720       .     S
C361  C363   1.39720       .     S
C365  C361   1.40609       .     S
C361  C365   1.40609       .     S
H374  C361   0.93642       .     S
C361  H374   0.93642       .     S
C363  C362   1.43285       .     S
C362  C363   1.43285       .     S
C365  C364   1.43560       .     S
C364  C365   1.43560       .     S
C376  N375   1.49907       .     S
N375  C376   1.49907       .     S
H395  N375   0.93100       .     S
N375  H395   0.93100       .     S
H396  N375   0.84249       .     S
N375  H396   0.84249       .     S
H397  N375   1.07058       .     S
N375  H397   1.07058       .     S
C377  C376   1.53764       .     S
C376  C377   1.53764       .     S
C383  C376   1.54607       .     S
C376  C383   1.54607       .     S
C389  C376   1.52394       .     S
C376  C389   1.52394       .     S
C378  C377   1.39725       .     S
C377  C378   1.39725       .     S
C382  C377   1.38620       .     S
C377  C382   1.38620       .     S
C379  C378   1.38141       .     S
C378  C379   1.38141       .     S
H398  C378   0.92755       .     S
C378  H398   0.92755       .     S
C380  C379   1.39106       .     S
C379  C380   1.39106       .     S
H399  C379   0.92831       .     S
C379  H399   0.92831       .     S
C381  C380   1.37978       .     S
C380  C381   1.37978       .     S
H400  C380   0.92657       .     S
C380  H400   0.92657       .     S
C382  C381   1.40465       .     S
C381  C382   1.40465       .     S
H401  C381   0.92783       .     S
C381  H401   0.92783       .     S
H402  C382   0.92990       .     S
C382  H402   0.92990       .     S
C384  C383   1.39014       .     S
C383  C384   1.39014       .     S
C388  C383   1.38654       .     S
C383  C388   1.38654       .     S
C385  C384   1.39536       .     S
C384  C385   1.39536       .     S
H403  C384   0.93182       .     S
C384  H403   0.93182       .     S
C386  C385   1.38752       .     S
C385  C386   1.38752       .     S
H404  C385   0.92651       .     S
C385  H404   0.92651       .     S
C387  C386   1.36892       .     S
C386  C387   1.36892       .     S
H405  C386   0.92791       .     S
C386  H405   0.92791       .     S
C388  C387   1.39888       .     S
C387  C388   1.39888       .     S
H406  C387   0.93289       .     S
C387  H406   0.93289       .     S
H407  C388   0.93169       .     S
C388  H407   0.93169       .     S
C390  C389   1.39910       .     S
C389  C390   1.39910       .     S
C394  C389   1.39334       .     S
C389  C394   1.39334       .     S
C391  C390   1.39465   1_554     S
C390  C391   1.39465   1_556     S
H408  C390   0.92717       .     S
C390  H408   0.92717       .     S
C392  C391   1.33134       .     S
C391  C392   1.33134       .     S
H409  C391   0.92843       .     S
C391  H409   0.92843       .     S
C393  C392   1.39862   1_556     S
C392  C393   1.39862   1_554     S
H410  C392   0.93242       .     S
C392  H410   0.93242       .     S
C394  C393   1.40301       .     S
C393  C394   1.40301       .     S
H411  C393   0.92814   1_455     S
C393  H411   0.92814   1_655     S
H412  C394   0.92735       .     S
C394  H412   0.92735       .     S
C414  N413   1.51627       .     S
N413  C414   1.51627       .     S
H433  N413   0.97869       .     S
N413  H433   0.97869       .     S
H434  N413   0.71079   1_655     S
N413  H434   0.71079   1_455     S
H435  N413   0.93094   1_655     S
N413  H435   0.93094   1_455     S
C415  C414   1.53442       .     S
C414  C415   1.53442       .     S
C421  C414   1.53745   1_655     S
C414  C421   1.53745   1_455     S
C427  C414   1.53135       .     S
C414  C427   1.53135       .     S
C416  C415   1.39267       .     S
C415  C416   1.39267       .     S
C420  C415   1.39856       .     S
C415  C420   1.39856       .     S
C417  C416   1.39401       .     S
C416  C417   1.39401       .     S
H436  C416   0.93446       .     S
C416  H436   0.93446       .     S
C418  C417   1.37376       .     S
C417  C418   1.37376       .     S
H437  C417   0.93218       .     S
C417  H437   0.93218       .     S
C419  C418   1.39049       .     S
C418  C419   1.39049       .     S
H438  C418   0.92886       .     S
C418  H438   0.92886       .     S
C420  C419   1.38677       .     S
C419  C420   1.38677       .     S
H439  C419   0.93306       .     S
C419  H439   0.93306       .     S
H440  C420   0.92887   1_655     S
C420  H440   0.92888   1_455     S
C422  C421   1.39454   1_455     S
C421  C422   1.39454   1_655     S
C426  C421   1.39113       .     S
C421  C426   1.39113       .     S
C423  C422   1.40054   1_655     S
C422  C423   1.40054   1_455     S
H441  C422   0.93077       .     S
C422  H441   0.93077       .     S
C424  C423   1.38774       .     S
C423  C424   1.38774       .     S
H442  C423   0.93386       .     S
C423  H442   0.93386       .     S
C425  C424   1.38009       .     S
C424  C425   1.38009       .     S
H443  C424   0.93131       .     S
C424  H443   0.93131       .     S
C426  C425   1.39161       .     S
C425  C426   1.39161       .     S
H444  C425   0.92724       .     S
C425  H444   0.92724       .     S
H445  C426   0.93104       .     S
C426  H445   0.93104       .     S
C428  C427   1.38755       .     S
C427  C428   1.38755       .     S
C432  C427   1.41397       .     S
C427  C432   1.41397       .     S
C429  C428   1.39823       .     S
C428  C429   1.39823       .     S
H446  C428   0.92729       .     S
C428  H446   0.92729       .     S
C430  C429   1.37968       .     S
C429  C430   1.37968       .     S
H447  C429   0.92498       .     S
C429  H447   0.92498       .     S
C431  C430   1.40582       .     S
C430  C431   1.40582       .     S
H448  C430   0.93296       .     S
C430  H448   0.93296       .     S
C432  C431   1.39096       .     S
C431  C432   1.39096       .     S
H449  C431   0.92478       .     S
C431  H449   0.92478       .     S
H450  C432   0.92927       .     S
C432  H450   0.92927       .     S
C452  N451   1.52200       .     S
N451  C452   1.52200       .     S
H471  N451   0.77777       .     S
N451  H471   0.77777       .     S
H472  N451   0.86476   1_655     S
N451  H472   0.86476   1_455     S
H473  N451   0.72867       .     S
N451  H473   0.72867       .     S
C453  C452   1.53515       .     S
C452  C453   1.53515       .     S
C459  C452   1.52917       .     S
C452  C459   1.52917       .     S
C465  C452   1.53325       .     S
C452  C465   1.53325       .     S
C454  C453   1.40501   1_655     S
C453  C454   1.40501   1_455     S
C458  C453   1.39207       .     S
C453  C458   1.39207       .     S
C455  C454   1.39355       .     S
C454  C455   1.39355       .     S
H474  C454   0.92986       .     S
C454  H474   0.92986       .     S
C456  C455   1.39086   1_455     S
C455  C456   1.39086   1_655     S
H475  C455   0.92984       .     S
C455  H475   0.92984       .     S
C457  C456   1.37962       .     S
C456  C457   1.37962       .     S
H476  C456   0.92818       .     S
C456  H476   0.92818       .     S
C458  C457   1.38763       .     S
C457  C458   1.38763       .     S
H477  C457   0.92437       .     S
C457  H477   0.92437       .     S
H478  C458   0.92219       .     S
C458  H478   0.92219       .     S
C460  C459   1.39804       .     S
C459  C460   1.39804       .     S
C464  C459   1.38945       .     S
C459  C464   1.38945       .     S
C461  C460   1.37852       .     S
C460  C461   1.37852       .     S
H479  C460   0.92830       .     S
C460  H479   0.92830       .     S
C462  C461   1.39745       .     S
C461  C462   1.39745       .     S
H480  C461   0.93527       .     S
C461  H480   0.93527       .     S
C463  C462   1.37301       .     S
C462  C463   1.37301       .     S
H481  C462   0.93121       .     S
C462  H481   0.93121       .     S
C464  C463   1.39402       .     S
C463  C464   1.39402       .     S
H482  C463   0.92668       .     S
C463  H482   0.92668       .     S
H483  C464   0.92995       .     S
C464  H483   0.92995       .     S
C466  C465   1.39233       .     S
C465  C466   1.39233       .     S
C470  C465   1.38940       .     S
C465  C470   1.38940       .     S
C467  C466   1.39562       .     S
C466  C467   1.39562       .     S
H484  C466   0.92824       .     S
C466  H484   0.92824       .     S
C468  C467   1.38361       .     S
C467  C468   1.38361       .     S
H485  C467   0.92501   1_655     S
C467  H485   0.92501   1_455     S
C469  C468   1.38157       .     S
C468  C469   1.38157       .     S
H486  C468   0.93288       .     S
C468  H486   0.93288       .     S
C470  C469   1.38135       .     S
C469  C470   1.38135       .     S
H487  C469   0.92936       .     S
C469  H487   0.92936       .     S
H488  C470   0.93364       .     S
C470  H488   0.93364       .     S
C490  N489   1.50488       .     S
N489  C490   1.50488       .     S
H509  N489   0.84056       .     S
N489  H509   0.84056       .     S
H510  N489   0.98420       .     S
N489  H510   0.98420       .     S
H511  N489   0.94941       .     S
N489  H511   0.94941       .     S
C491  C490   1.53753       .     S
C490  C491   1.53753       .     S
C497  C490   1.53456       .     S
C490  C497   1.53456       .     S
C503  C490   1.53137       .     S
C490  C503   1.53137       .     S
C492  C491   1.39587       .     S
C491  C492   1.39587       .     S
C496  C491   1.38895       .     S
C491  C496   1.38895       .     S
C493  C492   1.40374       .     S
C492  C493   1.40374       .     S
H512  C492   0.92937       .     S
C492  H512   0.92937       .     S
C494  C493   1.38784       .     S
C493  C494   1.38784       .     S
H513  C493   0.92996       .     S
C493  H513   0.92996       .     S
C495  C494   1.38161       .     S
C494  C495   1.38161       .     S
H514  C494   0.92829       .     S
C494  H514   0.92829       .     S
C496  C495   1.39201       .     S
C495  C496   1.39201       .     S
H515  C495   0.93104       .     S
C495  H515   0.93104       .     S
H516  C496   0.93509       .     S
C496  H516   0.93509       .     S
C498  C497   1.39576       .     S
C497  C498   1.39576       .     S
C502  C497   1.39804       .     S
C497  C502   1.39804       .     S
C499  C498   1.39400       .     S
C498  C499   1.39400       .     S
H517  C498   0.92879       .     S
C498  H517   0.92879       .     S
C500  C499   1.39571       .     S
C499  C500   1.39571       .     S
H518  C499   0.92629       .     S
C499  H518   0.92629       .     S
C501  C500   1.35915       .     S
C500  C501   1.35915       .     S
H519  C500   0.93814       .     S
C500  H519   0.93814       .     S
C502  C501   1.39435       .     S
C501  C502   1.39435       .     S
H520  C501   0.93120       .     S
C501  H520   0.93120       .     S
H521  C502   0.93226       .     S
C502  H521   0.93226       .     S
C504  C503   1.38645       .     S
C503  C504   1.38645       .     S
C508  C503   1.39176       .     S
C503  C508   1.39176       .     S
C505  C504   1.40296       .     S
C504  C505   1.40296       .     S
H522  C504   0.92671       .     S
C504  H522   0.92671       .     S
C506  C505   1.36716       .     S
C505  C506   1.36716       .     S
H523  C505   0.93131       .     S
C505  H523   0.93131       .     S
C507  C506   1.38124       .     S
C506  C507   1.38124       .     S
H524  C506   0.93024       .     S
C506  H524   0.93024       .     S
C508  C507   1.39644       .     S
C507  C508   1.39644       .     S
H525  C507   0.93361       .     S
C507  H525   0.93361       .     S
H526  C508   0.93295       .     S
C508  H526   0.93295       .     S
O528  S527   1.46145       .     S
S527  O528   1.46145       .     S
O529  S527   1.45621       .     S
S527  O529   1.45621       .     S
O530  S527   1.46131   1_455     S
S527  O530   1.46131   1_655     S
C532  S527   1.76319       .     S
S527  C532   1.76319       .     S
C532  C531   1.36822       .     S
C531  C532   1.36822       .     S
C541  C531   1.42944       .     S
C531  C541   1.42944       .     S
H545  C531   0.92873       .     S
C531  H545   0.92873       .     S
C533  C532   1.42405   1_455     S
C532  C533   1.42405   1_655     S
C534  C533   1.36283       .     S
C533  C534   1.36283       .     S
H546  C533   0.93141       .     S
C533  H546   0.93141       .     S
C542  C534   1.41992       .     S
C534  C542   1.41992       .     S
H547  C534   0.93050       .     S
C534  H547   0.93050       .     S
C536  C535   1.36791   1_655     S
C535  C536   1.36791   1_455     S
C544  C535   1.43610       .     S
C535  C544   1.43610       .     S
H548  C535   0.93088       .     S
C535  H548   0.93088       .     S
C537  C536   1.39801       .     S
C536  C537   1.39801       .     S
H549  C536   0.92317   1_455     S
C536  H549   0.92316   1_655     S
C538  C537   1.37213       .     S
C537  C538   1.37213       .     S
H550  C537   0.93116       .     S
C537  H550   0.93116       .     S
C543  C538   1.43410       .     S
C538  C543   1.43410       .     S
H551  C538   0.93528       .     S
C538  H551   0.93528       .     S
C541  C539   1.40310       .     S
C539  C541   1.40310       .     S
C543  C539   1.40144       .     S
C539  C543   1.40144       .     S
H552  C539   0.93259       .     S
C539  H552   0.93259       .     S
C542  C540   1.40468       .     S
C540  C542   1.40468       .     S
C544  C540   1.39520       .     S
C540  C544   1.39520       .     S
H553  C540   0.93347       .     S
C540  H553   0.93347       .     S
C542  C541   1.43122   1_455     S
C541  C542   1.43121   1_655     S
C544  C543   1.42328   1_455     S
C543  C544   1.42328   1_655     S
O555  S554   1.45989       .     S
S554  O555   1.45989       .     S
O556  S554   1.45318       .     S
S554  O556   1.45318       .     S
O557  S554   1.45942       .     S
S554  O557   1.45942       .     S
C559  S554   1.77006       .     S
S554  C559   1.77006       .     S
C559  C558   1.36034       .     S
C558  C559   1.36034       .     S
C568  C558   1.43590       .     S
C558  C568   1.43590       .     S
H572  C558   0.92636       .     S
C558  H572   0.92636       .     S
C560  C559   1.42002       .     S
C559  C560   1.42002       .     S
C561  C560   1.37063       .     S
C560  C561   1.37063       .     S
H573  C560   0.92808       .     S
C560  H573   0.92808       .     S
C569  C561   1.42404       .     S
C561  C569   1.42404       .     S
H574  C561   0.92916       .     S
C561  H574   0.92916       .     S
C563  C562   1.35842       .     S
C562  C563   1.35842       .     S
C571  C562   1.43758       .     S
C562  C571   1.43758       .     S
H575  C562   0.92766       .     S
C562  H575   0.92766       .     S
C564  C563   1.41086       .     S
C563  C564   1.41086       .     S
H576  C563   0.92894       .     S
C563  H576   0.92894       .     S
C565  C564   1.36405       .     S
C564  C565   1.36405       .     S
H577  C564   0.92901       .     S
C564  H577   0.92901       .     S
C570  C565   1.41329       .     S
C565  C570   1.41329       .     S
H578  C565   0.92634       .     S
C565  H578   0.92634       .     S
C568  C566   1.38513       .     S
C566  C568   1.38513       .     S
C570  C566   1.40743       .     S
C566  C570   1.40743       .     S
H579  C566   0.92683       .     S
C566  H579   0.92683       .     S
C569  C567   1.40165       .     S
C567  C569   1.40165       .     S
C571  C567   1.40644       .     S
C567  C571   1.40644       .     S
H580  C567   0.93109       .     S
C567  H580   0.93109       .     S
C569  C568   1.43040       .     S
C568  C569   1.43040       .     S
C571  C570   1.42754       .     S
C570  C571   1.42754       .     S
O582  S581   1.45676       .     S
S581  O582   1.45676       .     S
O583  S581   1.45915       .     S
S581  O583   1.45915       .     S
O584  S581   1.45291       .     S
S581  O584   1.45291       .     S
C586  S581   1.77105       .     S
S581  C586   1.77105       .     S
C586  C585   1.36020       .     S
C585  C586   1.36020       .     S
C595  C585   1.43226       .     S
C585  C595   1.43226       .     S
H599  C585   0.93463       .     S
C585  H599   0.93463       .     S
C587  C586   1.41022       .     S
C586  C587   1.41022       .     S
C588  C587   1.36171       .     S
C587  C588   1.36171       .     S
H600  C587   0.93363       .     S
C587  H600   0.93363       .     S
C596  C588   1.41136       .     S
C588  C596   1.41136       .     S
H601  C588   0.92770       .     S
C588  H601   0.92770       .     S
C590  C589   1.37975       .     S
C589  C590   1.37975       .     S
C598  C589   1.43674       .     S
C589  C598   1.43674       .     S
H602  C589   0.93117       .     S
C589  H602   0.93117       .     S
C591  C590   1.35630       .     S
C590  C591   1.35630       .     S
H603  C590   0.93763       .     S
C590  H603   0.93763       .     S
C592  C591   1.37842       .     S
C591  C592   1.37842       .     S
H604  C591   0.91490       .     S
C591  H604   0.91490       .     S
C597  C592   1.43021       .     S
C592  C597   1.43021       .     S
H605  C592   0.92580       .     S
C592  H605   0.92580       .     S
C595  C593   1.39705       .     S
C593  C595   1.39705       .     S
C597  C593   1.40518       .     S
C593  C597   1.40518       .     S
H606  C593   0.93143       .     S
C593  H606   0.93143       .     S
C596  C594   1.40066       .     S
C594  C596   1.40066       .     S
C598  C594   1.38031       .     S
C594  C598   1.38031       .     S
H607  C594   0.93527       .     S
C594  H607   0.93527       .     S
C596  C595   1.42793       .     S
C595  C596   1.42793       .     S
C598  C597   1.43350       .     S
C597  C598   1.43350       .     S
