data_I
_chemical_name_common  '/data/user2/wty/HOF/MOFDiff/mofdiff/data/test/6_918145_2as_tpma_tmbd-pos1'
_cell_length_a 31.29190
_cell_length_b 41.68410
_cell_length_c 31.97750
_cell_angle_alpha 90.00000
_cell_angle_beta  90.75700
_cell_angle_gamma 90.00000
_space_group_name_H-M_alt      'P 1'


loop_
_space_group_symop_operation_xyz
  'x, y, z' 

loop_
_atom_site_label
_atom_site_fract_x
_atom_site_fract_y
_atom_site_fract_z
_atom_site_type_symbol
S0      0.2498   0.3359   0.0929     S
O1      0.2339   0.3456   0.0522     O
O2       0.224   0.3103   0.1108     O
O3      0.2952   0.3281   0.0926     O
C4      0.2433   0.3692   0.1254     C
C5      0.2767   0.3834   0.1453     C
C6      0.2701   0.4102   0.1724     C
C7      0.3045   0.4251    0.193     C
C8      0.2979   0.4516   0.2207     C
C9       0.332   0.4661   0.2428     C
C10     0.3249    0.491   0.2694     C
C11     0.2827   0.5029   0.2753     C
C12     0.2498   0.4889   0.2541     C
C13     0.2556   0.4628   0.2264     C
C14     0.2218   0.4479   0.2055     C
C15     0.2281   0.4221   0.1785     C
C16     0.1935   0.4064   0.1573     C
C17     0.2007   0.3811   0.1311     C
H18     0.3048   0.3754   0.1412     H
H19     0.3327   0.4176   0.1884     H
H20     0.3603   0.4584   0.2391     H
H21     0.3483   0.5006   0.2842     H
H22     0.2777   0.5203   0.2938     H
H23     0.2217   0.4969   0.2581     H
H24     0.1936   0.4556   0.2096     H
H25     0.1651   0.4137   0.1615     H
H26     0.1774   0.3714   0.1166     H
C27      0.474   0.5665    0.287     C
C28     0.4482   0.4869   0.2364     C
C29     0.4585   0.5182   0.2416     C
C30      0.463   0.5312    0.281     C
C31     0.4563   0.5115   0.3155     C
C32     0.4428   0.4721   0.1928     C
C33     0.4463   0.4802   0.3108     C
C34     0.4398   0.4589   0.3493     C
C35     0.4427   0.4673   0.2708     C
H36     0.5049   0.5695    0.284     H
H37     0.4653   0.5735   0.3149     H
H38     0.4588   0.5793   0.2658     H
H39     0.4127   0.4731   0.1841     H
H40     0.4523   0.4497   0.1934     H
H41     0.4601   0.4842   0.1728     H
H42      0.467   0.4489   0.3574     H
H43     0.4188   0.4421   0.3426     H
H44     0.4293    0.472   0.3725     H
H45     0.4627   0.5313   0.2178     H
H46     0.4589   0.5202   0.3428     H
H47     0.4364   0.4451   0.2671     H
C48     0.4138   0.6936   0.2964     C
C49     0.4456   0.7152   0.3072     C
C50     0.4735   0.7096     0.34     C
C51     0.4693   0.6815   0.3623     C
C52     0.4375   0.6589   0.3517     C
C53     0.3844   0.7013   0.2595     C
C54     0.5096   0.7324   0.3508     C
C55     0.4344   0.6282   0.3761     C
C56      0.411   0.6655    0.319     C
H57     0.3612   0.7153   0.2687     H
H58     0.3723   0.6814   0.2481     H
H59     0.4007   0.7123   0.2377     H
H60     0.5361   0.7247   0.3383     H
H61     0.5132   0.7336   0.3812     H
H62     0.5028   0.7538   0.3397     H
H63     0.4527   0.6119   0.3635     H
H64     0.4047   0.6208   0.3757     H
H65     0.4437    0.632   0.4051     H
H66     0.4482   0.7345   0.2915     H
H67     0.4881   0.6773   0.3852     H
H68     0.3897   0.6503   0.3114     H
S69     0.2504   0.0056   0.0918     S
O70     0.2702   0.9782   0.1058     O
O71     0.2693    0.016   0.0529     O
O72     0.2048    0.001   0.0876     O
C73     0.2607   0.0369   0.1274     C
C74     0.2289    0.056   0.1413     C
C75     0.2385   0.0804   0.1718     C
C76     0.2805   0.0848   0.1866     C
C77     0.2895    0.108   0.2173     C
C78     0.2575   0.1273   0.2332     C
C79     0.3036   0.0413    0.141     C
C80     0.3136   0.0649   0.1699     C
C81     0.2062   0.1002   0.1876     C
C82     0.2153   0.1234   0.2187     C
C83     0.1813    0.142   0.2365     C
C84     0.1914   0.1641   0.2677     C
C85     0.2334    0.168   0.2814     C
C86     0.2651     0.15   0.2655     C
H87     0.2006   0.0533    0.131     H
H88      0.318   0.1105   0.2274     H
H89     0.3255    0.028   0.1303     H
H90     0.3424    0.068   0.1787     H
H91     0.1777    0.098   0.1773     H
H92     0.1526   0.1392   0.2271     H
H93     0.1694   0.1766   0.2797     H
H94     0.2399   0.1836   0.3023     H
H95     0.2934   0.1525   0.2763     H
N96      0.252   0.2521   0.4187     N
C97     0.2549   0.2773   0.3857     C
C98      0.231    0.307   0.4025     C
C99     0.2362   0.3157   0.4441     C
C100    0.2151   0.3431   0.4601     C
C101    0.1918   0.3622   0.4331     C
C102    0.1867   0.3542    0.392     C
C103    0.2064   0.3264   0.3767     C
C104    0.3015   0.2843   0.3776     C
C105    0.3143   0.3146   0.3652     C
C106    0.3573   0.3216   0.3566     C
C107    0.3875   0.2978   0.3605     C
C108     0.375   0.2675   0.3737     C
C109    0.3327   0.2608   0.3809     C
C110    0.2309   0.2647   0.3468     C
C111    0.1932   0.2482    0.351     C
C112    0.1689   0.2392   0.3153     C
C113    0.1832   0.2474   0.2764     C
C114    0.2204   0.2639   0.2716     C
C115    0.2444    0.273   0.3065     C
H116    0.2748   0.2538   0.4365     H
H117     0.252   0.2324   0.4065     H
H118    0.2275   0.2548   0.4332     H
H119    0.2539   0.3031   0.4621     H
H120    0.2172   0.3483    0.489     H
H121    0.1789   0.3812   0.4433     H
H122    0.1701   0.3674   0.3739     H
H123    0.2027   0.3207   0.3481     H
H124    0.2935   0.3311   0.3625     H
H125    0.3653   0.3425   0.3481     H
H126    0.4165    0.302   0.3544     H
H127    0.3959   0.2512   0.3778     H
H128    0.3246   0.2396   0.3883     H
H129    0.1835   0.2427    0.378     H
H130    0.1429   0.2277   0.3183     H
H131    0.1669   0.2414   0.2524     H
H132    0.2299   0.2693   0.2443     H
H133    0.2701   0.2848   0.3031     H
N134     0.335    1e-04   0.0012     N
C135    0.3715   0.0235   0.9951     C
C136    0.3541   0.0527   0.9717     C
C137    0.3781   0.0689    0.943     C
C138    0.3625   0.0965   0.9228     C
C139    0.3226   0.1081   0.9315     C
C140    0.2976   0.0918   0.9605     C
C141    0.3132   0.0645   0.9815     C
C142    0.3883   0.0324   0.0398     C
C143     0.395   0.0637   0.0512     C
C144    0.4106   0.0708   0.0919     C
C145    0.4202   0.0465   0.1191     C
C146    0.4133   0.0151    0.108     C
C147    0.3976   0.0076   0.0675     C
C148    0.4068   0.0058    0.971     C
C149    0.4481   0.0178    0.973     C
C150    0.4803   0.0028   0.9512     C
C151    0.4713    0.975   0.9276     C
C152    0.4307   0.9631   0.9257     C
C153    0.3982   0.9784   0.9471     C
H154    0.3228   0.0036   0.0265     H
H155    0.3451   0.9796    1e-04     H
H156     0.315    0.003   0.9805     H
H157    0.4058   0.0612   0.9367     H
H158    0.3798   0.1073    0.903     H
H159     0.312   0.1269    0.918     H
H160    0.2696   0.0992   0.9662     H
H161    0.2965   0.0541    0.002     H
H162    0.3892   0.0805    0.032     H
H163    0.4145   0.0925   0.1002     H
H164    0.4318   0.0514   0.1459     H
H165     0.419   0.9984   0.1275     H
H166    0.3934   0.9859   0.0593     H
H167    0.4544   0.0363   0.9894     H
H168    0.5085   0.0113    0.952     H
H169    0.4935   0.9645    0.913     H
H170    0.4247   0.9443   0.9098     H
H171    0.3699   0.9702   0.9455     H
N172    0.2525   0.2518   0.5888     N
C173     0.254   0.2781    0.621     C
C174    0.2088    0.283    0.636     C
C175    0.2831   0.2664    0.658     C
C176    0.2755   0.2781   0.6978     C
C177    0.3028   0.2695   0.7303     C
C178    0.3375     0.25   0.7238     C
C179     0.346   0.2392   0.6838     C
C180     0.319    0.247   0.6511     C
C181    0.1836   0.2569    0.648     C
C182    0.1421   0.2603    0.662     C
C183    0.1245   0.2907   0.6632     C
C184    0.1484   0.3164   0.6519     C
C185    0.1905   0.3132   0.6377     C
C186    0.2741   0.3077   0.6012     C
C187    0.2925   0.3316   0.6263     C
C188    0.3108    0.359   0.6093     C
C189    0.3127   0.3622   0.5662     C
C190    0.2953   0.3388   0.5411     C
C191    0.2761   0.3124   0.5581     C
H192    0.2557   0.2325   0.6017     H
H193    0.2739   0.2547   0.5702     H
H194    0.2268   0.2523   0.5751     H
H195    0.2518   0.2917   0.7027     H
H196    0.2974   0.2773   0.7576     H
H197    0.3555    0.244   0.7466     H
H198    0.3705   0.2264    0.679     H
H199    0.3246   0.2393   0.6238     H
H200    0.1955    0.236   0.6466     H
H201    0.1261   0.2422   0.6706     H
H202    0.0958   0.2936   0.6718     H
H203    0.1362   0.3372   0.6536     H
H204    0.2062   0.3315   0.6295     H
H205    0.2925    0.329   0.6559     H
H206    0.3219   0.3753   0.6271     H
H207    0.3259   0.3804   0.5541     H
H208    0.2966   0.3409   0.5115     H
H209    0.2638   0.2968     0.54     H
N210    0.2608   0.5846   0.4209     N
C211    0.2705   0.6506   0.4465     C
C212    0.2652   0.6103   0.3874     C
C213    0.2864    0.639   0.4087     C
C214    0.2208   0.6183   0.3698     C
C215    0.2103     0.65   0.3599     C
C216    0.1912   0.5944   0.3613     C
C217    0.2939   0.5961   0.3528     C
C218    0.3274   0.5758   0.3623     C
C219    0.2899   0.6757   0.4669     C
C220    0.3251   0.6904   0.4504     C
C221     0.341     0.68   0.4133     C
C222    0.3217   0.6542    0.392     C
C223    0.1713   0.6573   0.3417     C
C224    0.1414   0.6335    0.334     C
C225     0.152   0.6019   0.3431     C
C226    0.2865   0.6044   0.3112     C
C227    0.3132   0.5931     0.28     C
C228    0.3472   0.5735   0.2897     C
C229    0.3537   0.5641   0.3312     C
H230    0.2855   0.5732   0.4229     H
H231    0.2389   0.5713   0.4139     H
H232    0.2554   0.5941   0.4459     H
H233     0.246   0.6409   0.4583     H
H234    0.2302   0.6666   0.3658     H
H235    0.1978   0.5727    0.368     H
H236    0.3325   0.5697   0.3905     H
H237    0.2789    0.683   0.4927     H
H238    0.3383   0.7077   0.4648     H
H239    0.3652   0.6903   0.4018     H
H240    0.3328   0.6471   0.3661     H
H241    0.1649   0.6788   0.3343     H
H242    0.1141   0.6387   0.3226     H
H243    0.1322   0.5853   0.3367     H
H244     0.263   0.6178    0.304     H
H245     0.308   0.5991   0.2517     H
H246    0.3659   0.5663   0.2685     H
H247    0.3762   0.5496   0.3381     H
C248    0.9813   0.6031   0.2304     C
C249    0.9614   0.6144   0.1925     C
C250    0.9823    0.609   0.1546     C
C251    0.0192   0.5916   0.1527     C
C252    0.0372   0.5813   0.1903     C
C253    0.0193   0.5868   0.2295     C
C254     0.043   0.5857    0.113     C
C255    0.0403   0.5748   0.2685     C
C256    0.9194   0.6332   0.1935     C
H257    0.0318   0.5663   0.0994     H
H258    0.0734   0.5828   0.1195     H
H259    0.0393   0.6041   0.0942     H
H260    0.0602   0.5911   0.2792     H
H261    0.0561   0.5551   0.2624     H
H262    0.0185   0.5704   0.2894     H
H263    0.8955   0.6183   0.1968     H
H264    0.9158   0.6452   0.1673     H
H265    0.9201   0.6482   0.2171     H
H266     0.968   0.6071   0.2565     H
H267    0.9704   0.6178   0.1296     H
H268    0.0633   0.5697   0.1893     H
S269    0.7552   0.1728   0.4102     S
O270    0.7095   0.1662   0.4109     O
O271    0.7726   0.1792   0.4513     O
O272    0.7784   0.1478   0.3881     O
C273     0.762    0.208    0.381     C
C274    0.7311   0.2183   0.3534     C
C275    0.7395   0.2453   0.3269     C
C276    0.8013   0.2245   0.3851     C
C277    0.7788   0.2622   0.3313     C
C278    0.7866   0.2888   0.3054     C
C279    0.7566   0.2991   0.2758     C
C280    0.7643   0.3264   0.2496     C
C281    0.7356   0.3353   0.2194     C
C282    0.6971   0.3179   0.2133     C
C283    0.6891   0.2919    0.238     C
C284    0.7184   0.2822   0.2708     C
C285    0.7095   0.2557   0.2967     C
C286    0.8094   0.2512   0.3609     C
H287    0.7043   0.2077   0.3518     H
H288    0.8223   0.2172   0.4046     H
H289    0.8129   0.2999   0.3081     H
H290    0.7899   0.3384   0.2534     H
H291    0.7415   0.3533   0.2022     H
H292    0.6771   0.3242   0.1923     H
H293    0.6635   0.2799   0.2335     H
H294     0.683   0.2448   0.2936     H
H295    0.8357   0.2624   0.3642     H
N296    0.1715   0.3328   0.9908     N
C297    0.1367   0.3579   0.9852     C
C298    0.1567   0.3868    0.963     C
C299    0.1372   0.4015   0.9291     C
C300    0.1553   0.4274    0.909     C
C301    0.1938   0.4398   0.9239     C
C302     0.214   0.4254    0.958     C
C303    0.1954   0.3995   0.9775     C
C304    0.1011   0.3424    0.959     C
C305    0.1104   0.3226   0.9249     C
C306    0.0786   0.3096   0.9004     C
C307    0.0361   0.3166   0.9086     C
C308    0.0254   0.3357   0.9421     C
C309     0.058    0.349   0.9672     C
C310    0.1212   0.3665   0.0288     C
C311    0.1119   0.3979   0.0392     C
C312    0.0943    0.405   0.0791     C
C313    0.0868   0.3811   0.1067     C
C314    0.0954   0.3497   0.0961     C
C315    0.1121   0.3423    0.058     C
H316    0.1709   0.3191   0.9686     H
H317     0.167   0.3216   0.0147     H
H318    0.1974   0.3426   0.9923     H
H319    0.1105   0.3935   0.9192     H
H320    0.1416   0.4366   0.8852     H
H321    0.2062    0.458   0.9109     H
H322    0.2407   0.4334   0.9679     H
H323    0.2091   0.3902   0.0012     H
H324    0.1394   0.3181   0.9186     H
H325    0.0856   0.2959   0.8778     H
H326    0.0141   0.3081    0.891     H
H327    0.9962   0.3398   0.9482     H
H328    0.0509   0.3626   0.9899     H
H329    0.1171   0.4147   0.0198     H
H330    0.0879   0.4266   0.0863     H
H331    0.0756    0.386   0.1334     H
H332    0.0897   0.3331   0.1155     H
H333    0.1176   0.3205   0.0511     H
C334    0.0376   0.7317   0.2975     C
C335     0.996   0.7385   0.2828     C
C336    0.9806   0.7203   0.2489     C
C337    0.0058   0.6971   0.2302     C
C338    0.0454   0.6908   0.2461     C
C339     0.061   0.7092   0.2794     C
C340    0.9362   0.7283   0.2326     C
C341    0.0736   0.6656   0.2261     C
C342    0.0541   0.7515   0.3359     C
H343    0.9157   0.7128   0.2436     H
H344    0.9359   0.7274    0.202     H
H345    0.9283     0.75   0.2417     H
H346    0.0683   0.6447   0.2392     H
H347    0.1037   0.6715   0.2301     H
H348    0.0669   0.6643   0.1961     H
H349    0.0685   0.7709   0.3262     H
H350    0.0743   0.7385   0.3524     H
H351    0.0299   0.7575   0.3534     H
H352    0.9791   0.7547   0.2953     H
H353    0.9954   0.6857   0.2065     H
H354    0.0892   0.7054   0.2894     H
N355    0.1668   0.4978    0.506     N
C356    0.1329   0.4715    0.508     C
C357    0.1197   0.4637   0.4626     C
C358    0.1167   0.4325   0.4492     C
C359    0.1035   0.4256   0.4081     C
C360    0.0931   0.4502   0.3815     C
C361    0.0968   0.4819   0.3936     C
C362    0.1101   0.4886   0.4352     C
C363    0.0959   0.4854   0.5326     C
C364    0.0537   0.4767   0.5218     C
C365    0.0196   0.4876   0.5453     C
C366    0.0267   0.5079   0.5793     C
C367    0.0675   0.5161   0.5904     C
C368    0.1021   0.5055   0.5674     C
C369    0.1525   0.4428   0.5297     C
C370    0.1947   0.4339   0.5228     C
C371    0.2122   0.4068   0.5413     C
C372    0.1876   0.3866   0.5661     C
C373    0.1459   0.3944   0.5727     C
C374    0.1287   0.4231   0.5551     C
H375    0.1931   0.4887   0.5045     H
H376    0.1654   0.5102   0.5294     H
H377     0.162   0.5102    0.483     H
H378    0.1235   0.4154   0.4679     H
H379    0.1017   0.4041   0.3987     H
H380    0.0832   0.4454    0.354     H
H381    0.0905   0.4988   0.3745     H
H382    0.1125   0.5103   0.4443     H
H383    0.0485   0.4633   0.4983     H
H384    0.9913   0.4812   0.5382     H
H385    0.0032    0.516   0.5946     H
H386    0.0723   0.5292   0.6143     H
H387    0.1302    0.512   0.5752     H
H388    0.2119   0.4467   0.5051     H
H389    0.2415   0.4019   0.5371     H
H390    0.1996   0.3677    0.578     H
H391    0.1284   0.3808   0.5891     H
H392       0.1   0.4288    0.561     H
N393    0.3325   0.6688   0.0136     N
C394    0.3658   0.6953   0.0115     C
C395    0.3454   0.7258   0.0303     C
C396    0.2841   0.7587   0.0441     C
C397    0.3091   0.7805   0.0659     C
C398    0.3797   0.6998   0.9667     C
C399    0.3803   0.6739   0.9384     C
C400    0.3941   0.6788   0.8981     C
C401    0.4074   0.7081   0.8847     C
C402    0.3939   0.7296    0.953     C
C403     0.403   0.6837   0.0397     C
C404    0.3948   0.6735   0.0803     C
C405    0.4281   0.6627   0.1055     C
C406    0.4695   0.6629   0.0922     C
C407    0.4779   0.6731   0.0528     C
C408    0.4449   0.6839   0.0267     C
C409    0.3527   0.7753    0.069     C
C410    0.3703   0.7481   0.0518     C
C411     0.408   0.7336   0.9121     C
C412    0.3023   0.7321    0.026     C
H413    0.3361   0.6575   0.0377     H
H414    0.3355   0.6554   0.9913     H
H415    0.3059   0.6776   0.0129     H
H416    0.2541    0.762   0.0417     H
H417    0.2966   0.7988   0.0785     H
H418    0.3712   0.6532    0.947     H
H419    0.3944   0.6613   0.8792     H
H420    0.4162    0.711   0.8566     H
H421    0.3941   0.7473   0.9717     H
H422    0.3665   0.6739   0.0906     H
H423    0.4221    0.655   0.1328     H
H424     0.492   0.6561   0.1102     H
H425    0.5064   0.6729   0.0429     H
H426    0.4513   0.6915   0.9995     H
H427    0.3705   0.7905   0.0829     H
H428    0.4002   0.7446   0.0547     H
H429     0.418   0.7539   0.9031     H
H430    0.2848   0.7178   0.0101     H
S431    0.7485   0.1708   0.5902     S
O432    0.7219   0.1473    0.611     O
O433    0.7342   0.1773   0.5475     O
O434    0.7938   0.1624   0.5924     O
C435     0.743   0.2066    0.618     C
C436    0.7739   0.2169   0.6457     C
C437    0.7213   0.2894   0.6914     C
C438    0.7674   0.2447   0.6711     C
C439    0.7043   0.2245   0.6131     C
C440    0.7287    0.262   0.6657     C
C441    0.7504   0.2982   0.7226     C
C442    0.7419   0.3246   0.7501     C
C443    0.7704   0.3329   0.7804     C
C444    0.8089   0.3158   0.7858     C
C445    0.8183   0.2906   0.7599     C
C446    0.7891   0.2811   0.7279     C
C447    0.7973   0.2545   0.7012     C
C448    0.6974   0.2513   0.6363     C
H449    0.8001   0.2054   0.6481     H
H450    0.6962   0.3018   0.6871     H
H451    0.6831   0.2177   0.5935     H
H452    0.7161   0.3364   0.7471     H
H453    0.7644   0.3506   0.7982     H
H454    0.8284   0.3217   0.8075     H
H455    0.8445   0.2794   0.7634     H
H456    0.8236   0.2433   0.7039     H
H457    0.6715   0.2629   0.6329     H
N458    0.1646   0.6658   0.9828     N
C459    0.1291   0.6909   0.9829     C
C460    0.1158   0.6963   0.0278     C
C461    0.1141   0.6701   0.0557     C
C462    0.0986   0.6745   0.0958     C
C463    0.0841   0.7043   0.1089     C
C464    0.1021    0.726   0.0414     C
C465     0.148   0.7217    0.964     C
C466    0.1876   0.7329   0.9772     C
C467    0.2058   0.7597   0.9594     C
C468     0.185   0.7764   0.9271     C
C469    0.1276   0.7383   0.9316     C
C470     0.092   0.6782   0.9564     C
C471      0.05   0.6842   0.9675     C
C472    0.0158   0.6723   0.9429     C
C473    0.0238   0.6552   0.9074     C
C474    0.0646    0.649   0.8961     C
C475     0.099   0.6603   0.9205     C
C476    0.1452   0.7655   0.9136     C
C477    0.0861   0.7303   0.0821     C
H478    0.1905   0.6757   0.9848     H
H479    0.1632   0.6543   0.9586     H
H480    0.1614   0.6523   0.0049     H
H481    0.1236   0.6495   0.0471     H
H482    0.0978   0.6568   0.1145     H
H483    0.0729   0.7068   0.1362     H
H484    0.1033   0.7439    0.023     H
H485    0.2025    0.722    0.999     H
H486    0.2329   0.7669   0.9692     H
H487    0.1978   0.7947   0.9147     H
H488    0.1008   0.7307   0.9214     H
H489    0.0443   0.6964   0.9919     H
H490    0.9871   0.6763    0.951     H
H491    0.0007   0.6475   0.8906     H
H492      0.07    0.637   0.8715     H
H493    0.1274   0.6556   0.9124     H
H494      0.13   0.7766   0.8922     H
H495    0.0769   0.7509   0.0911     H
C496    0.4247   0.1538   0.2188     C
C497    0.4665   0.1515   0.2316     C
C498     0.478   0.1616   0.2722     C
C499     0.447   0.1732   0.2974     C
C500     0.405   0.1752   0.2847     C
C501     0.394   0.1654   0.2439     C
C502    0.4117   0.1417   0.1751     C
C503    0.5243   0.1601   0.2864     C
C504    0.3706   0.1885   0.3133     C
H505    0.4091     0.16   0.1559     H
H506    0.3842   0.1306   0.1765     H
H507    0.4335    0.127   0.1648     H
H508    0.5325   0.1376   0.2911     H
H509    0.5279   0.1722   0.3125     H
H510    0.5424   0.1694   0.2648     H
H511     0.369   0.1752   0.3385     H
H512    0.3429   0.1882   0.2986     H
H513    0.3778   0.2105   0.3212     H
H514    0.4875   0.1432   0.2133     H
H515    0.4547   0.1802   0.3247     H
H516    0.3653   0.1669   0.2341     H
C517    0.1279    0.497   0.2644     C
C518    0.1135   0.5076   0.2251     C
C519    0.0974   0.4868   0.1952     C
C520    0.0952   0.4544   0.2051     C
C521      0.11   0.4427   0.2432     C
C522    0.1268   0.4638   0.2724     C
C523    0.1451   0.5197   0.2967     C
C524    0.0778   0.4982    0.154     C
C525    0.1095   0.4073   0.2552     C
H526    0.1756   0.5233    0.292     H
H527    0.1411   0.5105   0.3246     H
H528    0.1297   0.5402   0.2946     H
H529    0.0474   0.5026   0.1578     H
H530    0.0812   0.4814   0.1328     H
H531    0.0924   0.5178    0.145     H
H532    0.0814   0.4017   0.2661     H
H533    0.1314   0.4033   0.2768     H
H534    0.1155   0.3942   0.2306     H
H535    0.1148   0.5298   0.2188     H
H536    0.0833   0.4399   0.1852     H
H537    0.1377   0.4558   0.2982     H
C538    0.1198   0.3226   0.2323     C
C539     0.122   0.3168    0.274     C
C540    0.0853   0.3145   0.2973     C
C541    0.0464   0.3169    0.277     C
C542    0.0426   0.3226    0.235     C
C543    0.0796   0.3243   0.2122     C
C544    0.1597    0.325   0.2062     C
C545    0.0873    0.306   0.3439     C
C546    0.9994   0.3257   0.2131     C
H547    0.1685   0.3475   0.2042     H
H548    0.1537   0.3166   0.1781     H
H549    0.1827   0.3125   0.2194     H
H550    0.0894   0.2827   0.3472     H
H551    0.0613   0.3137   0.3575     H
H552    0.1123   0.3162   0.3569     H
H553    0.9899   0.3045   0.2033     H
H554    0.0018   0.3402   0.1892     H
H555    0.9785   0.3343   0.2327     H
H556    0.1491   0.3142   0.2873     H
H557    0.0211   0.3145   0.2929     H
H558    0.0779   0.3266   0.1826     H
N559    0.2712   0.9154   0.4202     N
C560    0.2721    0.941   0.3861     C
C561    0.2905   0.9717   0.4052     C
C562    0.3185   0.9905   0.3836     C
C563    0.2797   0.9811   0.4462     C
C564    0.2968   0.0085   0.4632     C
C565    0.3247   0.0272   0.4404     C
C566    0.2258   0.9459   0.3706     C
C567    0.1729   0.9794   0.3372     C
C568    0.1975   0.9208   0.3697     C
C569    0.2137   0.9756   0.3549     C
C570    0.3358   0.0185   0.4004     C
C571    0.1446   0.9544   0.3362     C
C572    0.1571    0.925   0.3524     C
C573    0.3004   0.9278   0.3509     C
C574    0.2877     0.93   0.3095     C
C575    0.3145   0.9191   0.2773     C
C576    0.3533    0.906   0.2878     C
C577    0.3664   0.9037    0.329     C
C578    0.3402   0.9147   0.3606     C
H579    0.2965   0.9046   0.4206     H
H580    0.2495   0.9014   0.4148     H
H581    0.2672   0.9249   0.4454     H
H582    0.3263   0.9842   0.3562     H
H583    0.2605   0.9684   0.4621     H
H584    0.2895   0.0148   0.4908     H
H585    0.3362   0.0462   0.4523     H
H586    0.1648   0.9996   0.3257     H
H587    0.2056   0.9005   0.3808     H
H588    0.2329   0.9932   0.3563     H
H589     0.355   0.0313   0.3847     H
H590    0.1168   0.9571   0.3244     H
H591    0.1377   0.9075   0.3518     H
H592    0.2605   0.9389   0.3026     H
H593    0.3057   0.9209   0.2488     H
H594    0.3714   0.8984   0.2663     H
H595    0.3934   0.8945   0.3358     H
H596    0.3495   0.9134    0.389     H
N597    0.3379   0.3331   0.0173     N
C598    0.3739    0.358   0.0221     C
C599    0.3546   0.3872   0.0435     C
C600    0.3145   0.3983   0.0314     C
C601    0.2972   0.4258   0.0498     C
C602    0.3208   0.4428   0.0797     C
C603    0.3603    0.432   0.0917     C
C604    0.3771   0.4043   0.0738     C
C605    0.3888   0.3658    0.978     C
C606    0.3956   0.3965   0.9641     C
C607    0.4105    0.403   0.9246     C
C608    0.4194   0.3777   0.8978     C
C609    0.4138   0.3472   0.9109     C
C610    0.3986   0.3408   0.9503     C
C611    0.4093   0.3427   0.0485     C
C612    0.4003   0.3209   0.0797     C
C613    0.4331   0.3071    0.104     C
C614    0.4751   0.3157   0.0963     C
C615    0.4844   0.3372   0.0656     C
C616    0.4516    0.351   0.0415     C
H617    0.3377   0.3202   0.0403     H
H618    0.3425    0.321   0.9941     H
H619    0.3124   0.3434   0.0147     H
H620    0.2986   0.3872   0.0104     H
H621    0.2694   0.4328    0.042     H
H622    0.3095   0.4618   0.0916     H
H623    0.3764   0.4433   0.1123     H
H624    0.4045    0.397   0.0827     H
H625    0.3898   0.4139   0.9824     H
H626    0.4146   0.4245   0.9158     H
H627    0.4295   0.3819   0.8704     H
H628    0.4204     0.33   0.8927     H
H629    0.3948   0.3191   0.9588     H
H630    0.3714   0.3151   0.0847     H
H631    0.4267   0.2922   0.1254     H
H632    0.4976   0.3065   0.1126     H
H633    0.5132   0.3429   0.0606     H
H634    0.4583   0.3661   0.0202     H
C635    0.4247   0.0533   0.2933     C
C636    0.4582   0.0718   0.3097     C
C637    0.4836   0.0598    0.342     C
C638    0.4758   0.0294   0.3575     C
C639    0.4424    0.011    0.342     C
C640    0.4172   0.0232   0.3105     C
C641    0.3977   0.0664   0.2563     C
C642     0.521   0.0795   0.3594     C
C643    0.4333   0.9784     0.36     C
H644    0.3753   0.0805   0.2669     H
H645    0.3846   0.0484    0.241     H
H646    0.4161   0.0785   0.2374     H
H647    0.5472   0.0736   0.3448     H
H648    0.5246   0.0751   0.3894     H
H649    0.5152   0.1024   0.3552     H
H650    0.4481   0.9619   0.3437     H
H651    0.4024   0.9743    0.359     H
H652    0.4434   0.9776   0.3892     H
H653    0.4636   0.0926   0.2987     H
H654    0.4936    0.021   0.3791     H
H655    0.3939   0.0108   0.3001     H
S656    0.2536   0.4986   0.4142     S
O657    0.2983    0.508   0.4212     O
O658    0.2294   0.5245   0.3941     O
O659    0.2336   0.4869   0.4523     O
C660    0.2527   0.4663   0.3799     C
C661    0.2887   0.4536   0.3637     C
C662     0.287   0.4271   0.3345     C
C663    0.3242    0.414   0.3171     C
C664    0.3212   0.3884   0.2887     C
C665    0.3595   0.3761   0.2697     C
C666     0.354   0.3511    0.241     C
C667    0.3152   0.3384   0.2312     C
C668    0.2782   0.3497   0.2489     C
C669    0.2816   0.3757   0.2788     C
C670    0.2441    0.388   0.2956     C
C671    0.2468   0.4138   0.3242     C
C672    0.2097   0.4274   0.3417     C
C673    0.2125   0.4528   0.3689     C
H674    0.3157   0.4623   0.3716     H
H675    0.3514   0.4226   0.3245     H
H676     0.387   0.3846   0.2764     H
H677    0.3785   0.3427   0.2277     H
H678    0.3135   0.3213   0.2116     H
H679    0.2512   0.3407   0.2417     H
H680    0.2172   0.3791   0.2879     H
H681    0.1825   0.4188   0.3346     H
H682    0.1872   0.4614   0.3806     H
S683    0.2599   0.1654   0.4154     S
O684    0.2865   0.1906   0.3974     O
O685    0.2152   0.1742   0.4158     O
O686    0.2753   0.1548   0.4563     O
C687    0.2651    0.132   0.3828     C
C688    0.2315   0.1196   0.3611     C
C689    0.2374   0.0933   0.3333     C
C690    0.2035   0.0804   0.3099     C
C691    0.2089   0.0551   0.2815     C
C692    0.1748   0.0434    0.257     C
C693    0.1817   0.0191   0.2292     C
C694    0.2218    0.005   0.2249     C
C695    0.2555   0.0155   0.2492     C
C696    0.2503   0.0411   0.2783     C
C697    0.2839   0.0534   0.3016     C
C698    0.2785   0.0793   0.3289     C
C699     0.313   0.0935   0.3523     C
C700    0.3071    0.119    0.378     C
H701    0.2038   0.1286   0.3644     H
H702    0.1757   0.0891   0.3133     H
H703     0.147   0.0524   0.2598     H
H704    0.1586   0.0117   0.2123     H
H705    0.2257   0.9881   0.2053     H
H706    0.2827   0.0056   0.2465     H
H707    0.3114    0.044    0.299     H
H708    0.3409   0.0847   0.3497     H
H709    0.3307   0.1281   0.3927     H
N710    0.2388   0.9177   0.0881     N
C711    0.2325    0.894   0.1224     C
C712    0.2764   0.8846   0.1403     C
C713    0.3051   0.9084   0.1519     C
C714     0.344    0.901   0.1711     C
C715    0.3538    0.869    0.179     C
C716    0.3255   0.8453   0.1676     C
C717    0.2863   0.8528   0.1489     C
C718    0.2081    0.865   0.1042     C
C719     0.173   0.8519   0.1235     C
C720    0.1522   0.8249   0.1053     C
C721    0.1663   0.8125   0.0682     C
C722    0.2001   0.8257   0.0488     C
C723    0.2216   0.8524   0.0659     C
C724    0.2057    0.911   0.1568     C
C725     0.173    0.932   0.1463     C
C726    0.1486   0.9454   0.1776     C
C727    0.1561   0.9382   0.2192     C
C728    0.1878   0.9179   0.2293     C
C729    0.2135   0.9036   0.1986     C
H730    0.2377    0.938   0.0987     H
H731    0.2178   0.9153   0.0683     H
H732    0.2647   0.9144   0.0762     H
H733    0.2981   0.9303   0.1467     H
H734    0.3636   0.9175   0.1787     H
H735    0.3801   0.8636   0.1923     H
H736    0.3327   0.8235   0.1726     H
H737    0.2665   0.8363   0.1421     H
H738    0.1628   0.8609   0.1489     H
H739    0.1284   0.8154   0.1187     H
H740    0.1523   0.7945   0.0561     H
H741    0.2095   0.8169   0.0231     H
H742    0.2451   0.8617   0.0518     H
H743    0.1674   0.9371   0.1179     H
H744    0.1262   0.9599   0.1703     H
H745     0.139   0.9475   0.2403     H
H746    0.1931    0.913    0.258     H
H747    0.2357   0.8891   0.2063     H
C748    0.4984    0.395   0.2154     C
C749    0.5238   0.4194   0.2287     C
C750    0.5341    0.424   0.2693     C
C751    0.5187   0.4017   0.2987     C
C752    0.4927   0.3773    0.287     C
C753    0.4808   0.3738   0.2455     C
C754    0.4871   0.3891   0.1702     C
C755    0.4762   0.3535   0.3196     C
C756    0.5595   0.4517   0.2848     C
H757    0.4627   0.4026   0.1621     H
H758    0.4796   0.3665   0.1662     H
H759    0.5116   0.3945   0.1528     H
H760    0.4974   0.3365   0.3241     H
H761    0.4493   0.3439   0.3094     H
H762    0.4712   0.3647    0.346     H
H763    0.5898   0.4457   0.2864     H
H764    0.5497   0.4579   0.3126     H
H765    0.5559   0.4698   0.2655     H
H766    0.5347   0.4339   0.2086     H
H767    0.4611   0.3575   0.2372     H
H768    0.5267   0.4039   0.3273     H
S769    0.1604   0.5841   0.4992     S
O770    0.1615   0.5769   0.5437     O
O771    0.2024    0.593   0.4839     O
O772    0.1403   0.5589   0.4747     O
C773    0.1284   0.6183   0.4916     C
C774    0.1055   0.6309   0.5227     C
C775    0.0786   0.6582   0.5156     C
C776    0.0759   0.6716   0.4744     C
C777    0.0544   0.6713    0.547     C
C778    0.1274   0.6317   0.4508     C
C779    0.1023   0.6582   0.4433     C
C780    0.0485   0.6973   0.4668     C
C781    0.0245   0.7105   0.4987     C
C782    0.9956   0.7372   0.4905     C
C783    0.9707    0.748   0.5227     C
C784    0.9748   0.7359   0.5623     C
C785    0.0006   0.7109   0.5714     C
C786    0.0266   0.6978   0.5395     C
H787    0.1071   0.6216   0.5498     H
H788    0.0563   0.6625   0.5743     H
H789    0.1437   0.6225    0.429     H
H790    0.1026   0.6678   0.4163     H
H791    0.0461   0.7059   0.4394     H
H792    0.9939   0.7468   0.4636     H
H793    0.9502   0.7643   0.5173     H
H794    0.9588   0.7454   0.5841     H
H795    0.0015   0.7022   0.5988     H
C796    0.0677   0.8287   0.1844     C
C797    0.0807   0.8011   0.2048     C
C798     0.103   0.8041   0.2423     C
C799    0.1119   0.8345     0.26     C
C800    0.0981    0.861   0.2381     C
C801    0.0756   0.8593   0.2009     C
C802     0.071   0.7684   0.1883     C
C803    0.0595   0.8877   0.1773     C
C804     0.134   0.8372   0.3015     C
H805     0.044   0.7608   0.1999     H
H806     0.094   0.7537   0.1964     H
H807    0.0685   0.7693   0.1577     H
H808    0.0824   0.8964   0.1601     H
H809    0.0499   0.9041    0.197     H
H810    0.0355   0.8812   0.1592     H
H811    0.1134   0.8336   0.3238     H
H812    0.1465   0.8586   0.3046     H
H813    0.1568    0.821   0.3035     H
H814    0.0528   0.8268   0.1584     H
H815    0.1125   0.7853   0.2565     H
H816    0.1045   0.8816   0.2492     H
S817    0.1628   0.5797   0.9949     S
O818    0.1407   0.6034   0.9695     O
O819    0.1617   0.5877   0.0394     O
O820    0.2057   0.5731   0.9803     O
C821    0.1332   0.5441   0.9888     C
C822    0.1372   0.5267   0.9504     C
C823    0.1126      0.5   0.9445     C
C824     0.106   0.5339   0.0184     C
C825    0.0502   0.4963   0.0425     C
C826    0.0798   0.5061   0.0126     C
C827    0.0836   0.4888   0.9743     C
C828    0.0286   0.4517   0.9981     C
C829    0.9733   0.4155   0.0216     C
C830    0.9683   0.4327   0.0578     C
C831    0.0028    0.424   0.9932     C
C832    0.9933   0.4594   0.0635     C
C833    0.0246   0.4697   0.0357     C
C834    0.0577   0.4616   0.9684     C
H835    0.1565   0.5336   0.9296     H
H836    0.1152   0.4884    0.919     H
H837    0.1042   0.5455   0.0439     H
H838    0.0476   0.5081   0.0678     H
H839    0.9557   0.3973   0.0164     H
H840    0.9483   0.4263   0.0782     H
H841    0.0063   0.4109   0.9691     H
H842     0.989   0.4718    0.088     H
H843    0.0602   0.4496   0.9434     H
C844     0.492   0.2709   0.2661     C
C845     0.513   0.2941   0.2428     C
C846    0.5546    0.303   0.2525     C
C847    0.5746   0.2881   0.2858     C
C848    0.5552   0.2649   0.3091     C
C849    0.5131   0.2563   0.2989     C
C850    0.5761   0.3291   0.2281     C
C851    0.4461   0.2616   0.2555     C
C852     0.578   0.2482    0.345     C
H853    0.5901   0.3197   0.2037     H
H854    0.5975   0.3398   0.2459     H
H855    0.5547   0.3448   0.2187     H
H856    0.4265   0.2752   0.2714     H
H857    0.4414   0.2391   0.2629     H
H858    0.4407   0.2646   0.2255     H
H859    0.5935   0.2296   0.3344     H
H860     0.557   0.2412   0.3655     H
H861    0.5982   0.2632   0.3583     H
H862    0.4986    0.304   0.2199     H
H863     0.603   0.2942    0.293     H
H864     0.499   0.2403   0.3148     H
S865    0.3424    0.248   0.0083     S
O866    0.3672   0.2719   0.9859     O
O867    0.3292   0.2595   0.0489     O
O868    0.3075   0.2344   0.9837     O
C869    0.3775   0.2151    0.019     C
C870    0.3911   0.1972   0.9866     C
C871      0.42    0.172    0.993     C
C872    0.4355   0.1531   0.9599     C
C873    0.4651   0.1284   0.9668     C
C874    0.4821   0.1093   0.9335     C
C875    0.5109   0.0862   0.9418     C
C876    0.5257   0.0799   0.9831     C
C877      0.51   0.0959   0.0151     C
C878    0.4792   0.1214   0.0083     C
C879    0.4623   0.1395   0.0421     C
C880    0.4341   0.1648   0.0351     C
C881    0.4182   0.1832   0.0672     C
C882    0.3915   0.2087   0.0599     C
H883    0.3809   0.2017   0.9591     H
H884    0.4256   0.1572   0.9322     H
H885    0.4729    0.113   0.9055     H
H886    0.5216   0.0737   0.9194     H
H887     0.547    0.064   0.9878     H
H888    0.5189   0.0906   0.0427     H
H889    0.4705   0.1342   0.0699     H
H890     0.426    0.178   0.0952     H
H891    0.3826   0.2219   0.0824     H
N892    0.2378   0.5862   0.0853     N
C893    0.2385   0.5618   0.1198     C
C894      0.21   0.5744   0.1549     C
C895    0.1707   0.5897   0.1456     C
C896     0.221   0.5304   0.1023     C
C897    0.2305   0.5206   0.0611     C
C898    0.2132   0.4926   0.0444     C
C899    0.2846   0.5598   0.1363     C
C900    0.3089   0.5871   0.1412     C
C901    0.3013   0.5307   0.1507     C
C902    0.1455   0.6013   0.1777     C
C903    0.1586   0.5983    0.219     C
C904    0.1961    0.583   0.2289     C
C905    0.2218   0.5714   0.1971     C
C906    0.3486   0.5865    0.161     C
C907    0.3414   0.5303   0.1701     C
C908    0.3645   0.5575   0.1754     C
C909    0.1875   0.4733   0.0682     C
C910    0.1791   0.4816   0.1092     C
C911    0.1958     0.51   0.1258     C
H912    0.2165   0.5813   0.0667     H
H913    0.2633    0.586    0.072     H
H914    0.2331    0.606   0.0963     H
H915    0.1615    0.592   0.1173     H
H916     0.249   0.5333   0.0446     H
H917    0.2192   0.4868   0.0164     H
H918    0.2982    0.607   0.1308     H
H919    0.2854   0.5114   0.1472     H
H920     0.119   0.6113   0.1712     H
H921    0.1415   0.6069   0.2406     H
H922    0.2045   0.5804   0.2574     H
H923    0.2481   0.5612   0.2042     H
H924    0.3646   0.6057   0.1646     H
H925    0.3528   0.5105   0.1798     H
H926    0.3917   0.5566   0.1891     H
H927    0.1756   0.4543   0.0565     H
H928     0.162   0.4681    0.126     H
H929    0.1897   0.5155    0.154     H
S930    0.1638   0.2538   0.4965     S
O931    0.2042   0.2624    0.517     O
O932    0.1684   0.2499    0.452     O
O933    0.1428   0.2268    0.516     O
C934    0.1301   0.2872   0.5046     C
C935    0.1147   0.3046   0.4724     C
C936     0.086   0.3302   0.4794     C
C937     0.067    0.348   0.4471     C
C938    0.0361    0.372    0.455     C
C939    0.0152   0.3877   0.4222     C
C940    0.9846    0.411   0.4307     C
C941    0.9745   0.4188   0.4728     C
C942     0.994   0.4033   0.5048     C
C943    0.0255   0.3784   0.4973     C
C944    0.0437   0.3611   0.5294     C
C945    0.0732   0.3367   0.5219     C
C946    0.0904   0.3181   0.5546     C
C947    0.1176   0.2938   0.5463     C
H948    0.1231   0.2997   0.4447     H
H949     0.075   0.3438   0.4191     H
H950    0.0218   0.3826   0.3941     H
H951    0.9704   0.4217   0.4083     H
H952     0.954    0.435   0.4784     H
H953     0.987   0.4088   0.5327     H
H954    0.0361   0.3658   0.5574     H
H955    0.0829   0.3226   0.5827     H
H956    0.1284    0.281   0.5686     H
S957    0.3467   0.5806   0.0088     S
O958    0.3677   0.6079   0.0283     O
O959     0.304   0.5757   0.0245     O
O960    0.3478    0.582   0.9631     O
C961    0.3769   0.5468   0.0243     C
C962    0.3807   0.5403   0.0675     C
C963    0.4066    0.516   0.0814     C
C964     0.397   0.5281    0.996     C
C965    0.4295    0.496   0.0529     C
C966    0.4234   0.5017   0.0091     C
C967    0.4461   0.4826   0.9809     C
C968    0.4794   0.4532   0.0387     C
C969    0.4738   0.4586    0.995     C
C970    0.5094   0.4289    0.052     C
C971    0.5321   0.4117   0.0245     C
C972    0.5264   0.4164   0.9811     C
C973    0.4976    0.439    0.967     C
C974    0.4566   0.4719   0.0673     C
H975    0.3653   0.5528    0.087     H
H976    0.4094   0.5122   0.1106     H
H977    0.3935   0.5325    0.967     H
H978    0.4425    0.486   0.9517     H
H979    0.5133   0.4249   0.0811     H
H980    0.5521   0.3962   0.0344     H
H981    0.5424   0.4041   0.9617     H
H982    0.4934   0.4416   0.9377     H
H983    0.4597   0.4681   0.0964     H
C984    0.0611   0.0277   0.3267     C
C985    0.0121   0.9783   0.2365     C
C986    0.0064   0.9487   0.2547     C
C987    0.0188   0.9443   0.2966     C
C988    0.0367   0.9693   0.3187     C
C989     0.042   0.9998   0.3025     C
C990     0.029   0.0043     0.26     C
C991    0.0143   0.9123   0.3167     C
C992    0.9964   0.9851   0.1922     C
H993    0.0381   0.0411   0.3377     H
H994     0.079   0.0405   0.3081     H
H995    0.0786   0.0195     0.35     H
H996    0.9876   0.9117   0.3325     H
H997    0.0386   0.9086   0.3357     H
H998    0.0137   0.8956   0.2951     H
H999    0.0187   0.9793   0.1724     H
H1000   0.9897    0.008   0.1894     H
H1001   0.9707   0.9724   0.1863     H
H1002   0.9942   0.9315   0.2391     H
H1003    0.046   0.9654   0.3467     H
H1004   0.0316   0.0249   0.2474     H
C1005    0.982    0.566   0.3685     C
C1006   0.0192   0.5828   0.3796     C
C1007   0.0223   0.6161   0.3741     C
C1008   0.9866   0.6324   0.3547     C
C1009   0.9524   0.6143   0.3433     C
C1010   0.9467   0.5827   0.3484     C
C1011    0.909    0.563   0.3345     C
C1012   0.0569   0.5652   0.3983     C
C1013   0.9898    0.667   0.3476     C
H1014   0.9158   0.5402   0.3374     H
H1015   0.9021   0.5678   0.3052     H
H1016   0.8844   0.5682   0.3519     H
H1017   0.0667   0.5489   0.3786     H
H1018   0.0484   0.5548   0.4244     H
H1019     0.08   0.5805   0.4042     H
H1020    0.012    0.676    0.366     H
H1021   0.9623   0.6771   0.3536     H
H1022   0.9972   0.6709   0.3183     H
H1023     0.98   0.5436    0.374     H
H1024   0.0471   0.6275   0.3828     H
H1025   0.9295   0.6255     0.33     H
S1026   0.3391   0.9107   0.0117     S
O1027   0.3555   0.9398   0.0314     O
O1028   0.3399   0.9123   0.9667     O
O1029   0.2981   0.9009   0.0273     O
C1030   0.3752   0.8806   0.0288     C
C1031   0.3953   0.8603   0.0022     C
C1032   0.4244   0.8367    0.018     C
C1033   0.4331   0.8351   0.0621     C
C1034   0.3824   0.8789   0.0723     C
C1035   0.4109   0.8566   0.0881     C
C1036   0.4456   0.8149   0.9915     C
C1037    0.474   0.7923   0.0077     C
C1038    0.496   0.7701   0.9812     C
C1039   0.5241   0.7487    0.998     C
C1040   0.5328   0.7475   0.0411     C
C1041   0.5121   0.7676   0.0674     C
C1042   0.4822   0.7906   0.0517     C
C1043   0.4613   0.8123    0.077     C
H1044   0.3899   0.8619   0.9729     H
H1045   0.3678   0.8929   0.0907     H
H1046   0.4157   0.8557   0.1174     H
H1047   0.4403   0.8157   0.9622     H
H1048    0.491   0.7704   0.9518     H
H1049   0.5381    0.734     0.98     H
H1050   0.5533   0.7327   0.0519     H
H1051   0.5175   0.7662   0.0966     H
H1052   0.4667   0.8114   0.1063     H
loop_
_geom_bond_atom_site_label_1
_geom_bond_atom_site_label_2
_geom_bond_distance
_geom_bond_site_symmetry_2
_ccdc_geom_bond_type
H117  O684   2.07229       .     S
O684  H117   2.07229       .     S
H118  O932   1.96281       .     S
O932  H118   1.96281       .     S
H154  O71    1.95445       .     S
O71   H154   1.95445       .     S
H155  O1027  1.96251       .     S
O1027 H155   1.96251       .     S
H194  O931   2.02347       .     S
O931  H194   2.02347       .     S
H231  O658   2.07122       .     S
O658  H231   2.07122       .     S
H232  O771   2.06941       .     S
O771  H232   2.06941       .     S
H318  O1     2.22066   1_556     S
O1    H318   2.22066   1_554     S
H375  O659   2.11044       .     S
O659  H375   2.11044       .     S
H377  O772   2.15586       .     S
O772  H377   2.15586       .     S
H413  O958   2.31315       .     S
O958  H413   2.31315       .     S
H479  O818   2.26393       .     S
O818  H479   2.26393       .     S
H480  O818   2.41589   1_554     S
O818  H480   2.41589   1_556     S
H617  O3     2.17551       .     S
O3    H617   2.17551       .     S
H617  O867   2.55936       .     S
O867  H617   2.55936       .     S
H618  O866   2.20464       .     S
O866  H618   2.20464       .     S
H730  O70    1.97172       .     S
O70   H730   1.97172       .     S
H732  O1029  1.97417       .     S
O1029 H732   1.97417       .     S
H912  O819   1.93242       .     S
O819  H912   1.93242       .     S
H913  O959   2.04074       .     S
O959  H913   2.04074       .     S
S0    O1     1.44492       .     S
O1    S0     1.44492       .     S
S0    O2     1.45958       .     S
O2    S0     1.45958       .     S
S0    O3     1.45754       .     S
O3    S0     1.45754       .     S
S0    C4     1.74751       .     S
C4    S0     1.74751       .     S
C4    C5     1.35280       .     S
C5    C4     1.35280       .     S
C4    C17    1.43621       .     S
C17   C4     1.43621       .     S
C5    C6     1.43051       .     S
C6    C5     1.43051       .     S
C5    H18    0.95111       .     S
H18   C5     0.95111       .     S
C6    C7     1.39989       .     S
C7    C6     1.39989       .     S
C6    C15    1.42062       .     S
C15   C6     1.42062       .     S
C7    C8     1.43258       .     S
C8    C7     1.43258       .     S
C7    H19    0.94947       .     S
H19   C7     0.94947       .     S
C8    C9     1.40834       .     S
C9    C8     1.40834       .     S
C8    C13    1.41760       .     S
C13   C8     1.41760       .     S
C9    C10    1.36205       .     S
C10   C9     1.36205       .     S
C9    H20    0.95079       .     S
H20   C9     0.95079       .     S
C10   C11    1.42548       .     S
C11   C10    1.42548       .     S
C10   H21    0.95453       .     S
H21   C10    0.95453       .     S
C11   C12    1.35705       .     S
C12   C11    1.35705       .     S
C11   H22    0.95024       .     S
H22   C11    0.95024       .     S
C12   C13    1.41613       .     S
C13   C12    1.41613       .     S
C12   H23    0.95064       .     S
H23   C12    0.95064       .     S
C13   C14    1.39011       .     S
C14   C13    1.39011       .     S
C14   C15    1.39478       .     S
C15   C14    1.39478       .     S
C14   H24    0.94971       .     S
H24   C14    0.94971       .     S
C15   C16    1.42854       .     S
C16   C15    1.42854       .     S
C16   C17    1.36743       .     S
C17   C16    1.36743       .     S
C16   H25    0.95056       .     S
H25   C16    0.95056       .     S
C17   H26    0.94928       .     S
H26   C17    0.94928       .     S
C27   C30    1.52273       .     S
C30   C27    1.52273       .     S
C27   H36    0.98093       .     S
H36   C27    0.98093       .     S
C27   H37    0.98063       .     S
H37   C27    0.98063       .     S
C27   H38    0.98080       .     S
H38   C27    0.98080       .     S
C28   C29    1.35366       .     S
C29   C28    1.35366       .     S
C28   C32    1.53192       .     S
C32   C28    1.53192       .     S
C28   C35    1.38282       .     S
C35   C28    1.38282       .     S
C29   C30    1.37701       .     S
C30   C29    1.37701       .     S
C29   H45    0.94727       .     S
H45   C29    0.94727       .     S
C30   C31    1.39338       .     S
C31   C30    1.39338       .     S
C31   C33    1.34964       .     S
C33   C31    1.34964       .     S
C31   H46    0.94782       .     S
H46   C31    0.94782       .     S
C32   H39    0.97947       .     S
H39   C32    0.97947       .     S
C32   H40    0.98001       .     S
H40   C32    0.98001       .     S
C32   H41    0.98266       .     S
H41   C32    0.98266       .     S
C33   C34    1.53362       .     S
C34   C33    1.53362       .     S
C33   C35    1.39073       .     S
C35   C33    1.39073       .     S
C34   H42    0.97952       .     S
H42   C34    0.97952       .     S
C34   H43    0.98204       .     S
H43   C34    0.98204       .     S
C34   H44    0.98131       .     S
H44   C34    0.98131       .     S
C35   H47    0.95320       .     S
H47   C35    0.95320       .     S
C48   C49    1.38241       .     S
C49   C48    1.38241       .     S
C48   C53    1.52087       .     S
C53   C48    1.52087       .     S
C48   C56    1.37972       .     S
C56   C48    1.37972       .     S
C49   C50    1.37572       .     S
C50   C49    1.37572       .     S
C49   H66    0.95235       .     S
H66   C49    0.95235       .     S
C50   C51    1.37850       .     S
C51   C50    1.37850       .     S
C50   C54    1.51271       .     S
C54   C50    1.51271       .     S
C51   C52    1.40842       .     S
C52   C51    1.40842       .     S
C51   H67    0.94952       .     S
H67   C51    0.94952       .     S
C52   C55    1.50261       .     S
C55   C52    1.50261       .     S
C52   C56    1.35419       .     S
C56   C52    1.35419       .     S
C53   H57    0.97969       .     S
H57   C53    0.97969       .     S
C53   H58    0.98015       .     S
H58   C53    0.98015       .     S
C53   H59    0.98273       .     S
H59   C53    0.98273       .     S
C54   H60    0.97938       .     S
H60   C54    0.97938       .     S
C54   H61    0.97842       .     S
H61   C54    0.97842       .     S
C54   H62    0.98235       .     S
H62   C54    0.98235       .     S
C55   H63    0.97878       .     S
H63   C55    0.97878       .     S
C55   H64    0.97914       .     S
H64   C55    0.97914       .     S
C55   H65    0.98113       .     S
H65   C55    0.98113       .     S
C56   H68    0.94893       .     S
H68   C56    0.94893       .     S
S69   O70    1.37167   1_545     S
O70   S69    1.37167   1_565     S
S69   O71    1.45069       .     S
O71   S69    1.45069       .     S
S69   O72    1.44424       .     S
O72   S69    1.44424       .     S
S69   C73    1.75853       .     S
C73   S69    1.75853       .     S
C73   C74    1.35400       .     S
C74   C73    1.35400       .     S
C73   C79    1.41755       .     S
C79   C73    1.41755       .     S
C74   C75    1.43813       .     S
C75   C74    1.43813       .     S
C74   H87    0.94745       .     S
H87   C74    0.94745       .     S
C75   C76    1.40302       .     S
C76   C75    1.40302       .     S
C75   C81    1.40411       .     S
C81   C75    1.40411       .     S
C76   C77    1.40392       .     S
C77   C76    1.40392       .     S
C76   C80    1.43551       .     S
C80   C76    1.43551       .     S
C77   C78    1.38632       .     S
C78   C77    1.38632       .     S
C77   H88    0.95021       .     S
H88   C77    0.95021       .     S
C78   C82    1.40322       .     S
C82   C78    1.40322       .     S
C78   C86    1.41854       .     S
C86   C78    1.41854       .     S
C79   C80    1.38278       .     S
C80   C79    1.38278       .     S
C79   H89    0.94882       .     S
H89   C79    0.94882       .     S
C80   H90    0.94940       .     S
H90   C80    0.94940       .     S
C81   C82    1.41346       .     S
C82   C81    1.41346       .     S
C81   H91    0.95104       .     S
H91   C81    0.95104       .     S
C82   C83    1.43981       .     S
C83   C82    1.43981       .     S
C83   C84    1.39126       .     S
C84   C83    1.39126       .     S
C83   H92    0.95047       .     S
H92   C83    0.95047       .     S
C84   C85    1.38939       .     S
C85   C84    1.38939       .     S
C84   H93    0.94850       .     S
H93   C84    0.94850       .     S
C85   C86    1.34862       .     S
C86   C85    1.34862       .     S
C85   H94    0.95252       .     S
H94   C85    0.95252       .     S
C86   H95    0.95198       .     S
H95   C86    0.95198       .     S
N96   C97    1.49257       .     S
C97   N96    1.49257       .     S
N96   H116   0.90956       .     S
H116  N96    0.90956       .     S
N96   H117   0.90914       .     S
H117  N96    0.90914       .     S
N96   H118   0.90819       .     S
H118  N96    0.90819       .     S
C97   C98    1.54636       .     S
C98   C97    1.54636       .     S
C97   C104   1.51280       .     S
C104  C97    1.51280       .     S
C97   C110   1.53705       .     S
C110  C97    1.53705       .     S
C98   C99    1.38632       .     S
C99   C98    1.38632       .     S
C98   C103   1.38217       .     S
C103  C98    1.38217       .     S
C99   C100   1.41815       .     S
C100  C99    1.41815       .     S
C99   H119   0.95158       .     S
H119  C99    0.95158       .     S
C100  C101   1.37633       .     S
C101  C100   1.37633       .     S
C100  H120   0.95066       .     S
H120  C100   0.95066       .     S
C101  C102   1.36325       .     S
C102  C101   1.36325       .     S
C101  H121   0.94872       .     S
H121  C101   0.94872       .     S
C102  C103   1.40364       .     S
C103  C102   1.40364       .     S
C102  H122   0.94849       .     S
H122  C102   0.94849       .     S
C103  H123   0.95051       .     S
H123  C103   0.95051       .     S
C104  C105   1.38459       .     S
C105  C104   1.38459       .     S
C104  C109   1.38606       .     S
C109  C104   1.38606       .     S
C105  C106   1.40750       .     S
C106  C105   1.40750       .     S
C105  H124   0.95008       .     S
H124  C105   0.95008       .     S
C106  C107   1.37467       .     S
C107  C106   1.37467       .     S
C106  H125   0.94728       .     S
H125  C106   0.94728       .     S
C107  C108   1.38952       .     S
C108  C107   1.38952       .     S
C107  H126   0.94703       .     S
H126  C107   0.94703       .     S
C108  C109   1.37517       .     S
C109  C108   1.37517       .     S
C108  H127   0.95094       .     S
H127  C108   0.95094       .     S
C109  H128   0.95013       .     S
H128  C109   0.95013       .     S
C110  C111   1.37367       .     S
C111  C110   1.37367       .     S
C110  C115   1.40473       .     S
C115  C110   1.40473       .     S
C111  C112   1.41395       .     S
C112  C111   1.41395       .     S
C111  H129   0.94713       .     S
H129  C111   0.94713       .     S
C112  C113   1.37081       .     S
C113  C112   1.37081       .     S
C112  H130   0.95026       .     S
H130  C112   0.95026       .     S
C113  C114   1.36249       .     S
C114  C113   1.36249       .     S
C113  H131   0.94940       .     S
H131  C113   0.94940       .     S
C114  C115   1.38969       .     S
C115  C114   1.38969       .     S
C114  H132   0.95289       .     S
H132  C114   0.95289       .     S
C115  H133   0.95016       .     S
H133  C115   0.95016       .     S
N134  C135   1.51653   1_554     S
C135  N134   1.51653   1_556     S
N134  H154   0.91089       .     S
H154  N134   0.91089       .     S
N134  H155   0.91194   1_545     S
H155  N134   0.91194   1_565     S
N134  H156   0.91296   1_554     S
H156  N134   0.91296   1_556     S
C135  C136   1.52549       .     S
C136  C135   1.52549       .     S
C135  C142   1.56119   1_556     S
C142  C135   1.56119   1_554     S
C135  C148   1.54302       .     S
C148  C135   1.54302       .     S
C136  C137   1.37131       .     S
C137  C136   1.37131       .     S
C136  C141   1.41022       .     S
C141  C136   1.41022       .     S
C137  C138   1.40386       .     S
C138  C137   1.40386       .     S
C137  H157   0.94844       .     S
H157  C137   0.94844       .     S
C138  C139   1.37086       .     S
C139  C138   1.37086       .     S
C138  H158   0.95167       .     S
H158  C138   0.95167       .     S
C139  C140   1.39742       .     S
C140  C139   1.39742       .     S
C139  H159   0.95222       .     S
H159  C139   0.95222       .     S
C140  C141   1.40555       .     S
C141  C140   1.40555       .     S
C140  H160   0.94883       .     S
H160  C140   0.94883       .     S
C141  H161   0.94858   1_556     S
H161  C141   0.94858   1_554     S
C142  C143   1.37007       .     S
C143  C142   1.37007       .     S
C142  C147   1.38966       .     S
C147  C142   1.38966       .     S
C143  C144   1.41526       .     S
C144  C143   1.41526       .     S
C143  H162   0.94729       .     S
H162  C143   0.94729       .     S
C144  C145   1.36597       .     S
C145  C144   1.36597       .     S
C144  H163   0.95010       .     S
H163  C144   0.95010       .     S
C145  C146   1.37250       .     S
C146  C145   1.37250       .     S
C145  H164   0.94853       .     S
H164  C145   0.94853       .     S
C146  C147   1.41405       .     S
C147  C146   1.41405       .     S
C146  H165   0.94989   1_545     S
H165  C146   0.94989   1_565     S
C147  H166   0.95043   1_545     S
H166  C147   0.95043   1_565     S
C148  C149   1.38647       .     S
C149  C148   1.38647       .     S
C148  C153   1.39842   1_545     S
C153  C148   1.39842   1_565     S
C149  C150   1.38229       .     S
C150  C149   1.38229       .     S
C149  H167   0.95176       .     S
H167  C149   0.95176       .     S
C150  C151   1.40928   1_545     S
C151  C150   1.40928   1_565     S
C150  H168   0.95094       .     S
H168  C150   0.95094       .     S
C151  C152   1.36446       .     S
C152  C151   1.36446       .     S
C151  H169   0.94904       .     S
H169  C151   0.94904       .     S
C152  C153   1.38841       .     S
C153  C152   1.38841       .     S
C152  H170   0.95151       .     S
H170  C152   0.95151       .     S
C153  H171   0.94999       .     S
H171  C153   0.94999       .     S
N172  C173   1.50433       .     S
C173  N172   1.50433       .     S
N172  H192   0.90902       .     S
H192  N172   0.90902       .     S
N172  H193   0.90958       .     S
H193  N172   0.90958       .     S
N172  H194   0.91093       .     S
H194  N172   0.91093       .     S
C173  C174   1.51335       .     S
C174  C173   1.51335       .     S
C173  C175   1.56156       .     S
C175  C173   1.56156       .     S
C173  C186   1.52623       .     S
C186  C173   1.52623       .     S
C174  C181   1.40025       .     S
C181  C174   1.40025       .     S
C174  C185   1.38435       .     S
C185  C174   1.38435       .     S
C175  C176   1.38643       .     S
C176  C175   1.38643       .     S
C175  C180   1.40398       .     S
C180  C175   1.40398       .     S
C176  C177   1.38380       .     S
C177  C176   1.38380       .     S
C176  H195   0.94816       .     S
H195  C176   0.94816       .     S
C177  C178   1.37437       .     S
C178  C177   1.37437       .     S
C177  H196   0.94883       .     S
H196  C177   0.94883       .     S
C178  C179   1.38510       .     S
C179  C178   1.38510       .     S
C178  H197   0.94896       .     S
H197  C178   0.94896       .     S
C179  C180   1.37463       .     S
C180  C179   1.37463       .     S
C179  H198   0.94821       .     S
H198  C179   0.94821       .     S
C180  H199   0.94862       .     S
H199  C180   0.94862       .     S
C181  C182   1.38646       .     S
C182  C181   1.38646       .     S
C181  H200   0.94873       .     S
H200  C181   0.94873       .     S
C182  C183   1.38244       .     S
C183  C182   1.38244       .     S
C182  H201   0.94825       .     S
H201  C182   0.94825       .     S
C183  C184   1.35819       .     S
C184  C183   1.35819       .     S
C183  H202   0.95043       .     S
H202  C183   0.95043       .     S
C184  C185   1.40545       .     S
C185  C184   1.40545       .     S
C184  H203   0.94920       .     S
H203  C184   0.94920       .     S
C185  H204   0.94626       .     S
H204  C185   0.94626       .     S
C186  C187   1.39858       .     S
C187  C186   1.39858       .     S
C186  C191   1.39431       .     S
C191  C186   1.39431       .     S
C187  C188   1.39146       .     S
C188  C187   1.39146       .     S
C187  H205   0.95272       .     S
H205  C187   0.95272       .     S
C188  C189   1.38673       .     S
C189  C188   1.38673       .     S
C188  H206   0.94924       .     S
H206  C188   0.94924       .     S
C189  C190   1.37133       .     S
C190  C189   1.37133       .     S
C189  H207   0.94874       .     S
H207  C189   0.94874       .     S
C190  C191   1.36972       .     S
C191  C190   1.36972       .     S
C190  H208   0.95198       .     S
H208  C190   0.95198       .     S
C191  H209   0.94874       .     S
H209  C191   0.94874       .     S
N210  C212   1.52252       .     S
C212  N210   1.52252       .     S
N210  H230   0.90884       .     S
H230  N210   0.90884       .     S
N210  H231   0.90721       .     S
H231  N210   0.90721       .     S
N210  H232   0.90997       .     S
H232  N210   0.90997       .     S
C211  C213   1.39940       .     S
C213  C211   1.39940       .     S
C211  C219   1.37051       .     S
C219  C211   1.37051       .     S
C211  H233   0.94935       .     S
H233  C211   0.94935       .     S
C212  C213   1.52423       .     S
C213  C212   1.52423       .     S
C212  C214   1.52893       .     S
C214  C212   1.52893       .     S
C212  C217   1.55156       .     S
C217  C212   1.55156       .     S
C213  C222   1.38649       .     S
C222  C213   1.38649       .     S
C214  C215   1.39696       .     S
C215  C214   1.39696       .     S
C214  C216   1.38480       .     S
C216  C214   1.38480       .     S
C215  C223   1.37909       .     S
C223  C215   1.37909       .     S
C215  H234   0.94819       .     S
H234  C215   0.94819       .     S
C216  C225   1.38645       .     S
C225  C216   1.38645       .     S
C216  H235   0.95162       .     S
H235  C216   0.95162       .     S
C217  C218   1.37797       .     S
C218  C217   1.37797       .     S
C217  C226   1.39097       .     S
C226  C217   1.39097       .     S
C218  C229   1.38773       .     S
C229  C218   1.38773       .     S
C218  H236   0.94842       .     S
H236  C218   0.94842       .     S
C219  C220   1.37203       .     S
C220  C219   1.37203       .     S
C219  H237   0.94828       .     S
H237  C219   0.94828       .     S
C220  C221   1.36328       .     S
C221  C220   1.36328       .     S
C220  H238   0.94745       .     S
H238  C220   0.94745       .     S
C221  C222   1.40513       .     S
C222  C221   1.40513       .     S
C221  H239   0.94888       .     S
H239  C221   0.94888       .     S
C222  H240   0.94962       .     S
H240  C222   0.94962       .     S
C223  C224   1.38353       .     S
C224  C223   1.38353       .     S
C223  H241   0.94765       .     S
H241  C223   0.94765       .     S
C224  C225   1.38824       .     S
C225  C224   1.38824       .     S
C224  H242   0.94943       .     S
H242  C224   0.94943       .     S
C225  H243   0.94932       .     S
H243  C225   0.94932       .     S
C226  C227   1.39189       .     S
C227  C226   1.39189       .     S
C226  H244   0.94936       .     S
H244  C226   0.94936       .     S
C227  C228   1.37366       .     S
C228  C227   1.37366       .     S
C227  H245   0.95084       .     S
H245  C227   0.95084       .     S
C228  C229   1.39602       .     S
C229  C228   1.39602       .     S
C228  H246   0.95003       .     S
H246  C228   0.95003       .     S
C229  H247   0.95164       .     S
H247  C229   0.95164       .     S
C248  C249   1.43475       .     S
C249  C248   1.43475       .     S
C248  C253   1.37016   1_655     S
C253  C248   1.37016   1_455     S
C248  H266   0.95224       .     S
H266  C248   0.95224       .     S
C249  C250   1.40291       .     S
C250  C249   1.40291       .     S
C249  C256   1.53086       .     S
C256  C249   1.53086       .     S
C250  C251   1.36561   1_655     S
C251  C250   1.36561   1_455     S
C250  H267   0.95103       .     S
H267  C250   0.95103       .     S
C251  C252   1.38901       .     S
C252  C251   1.38901       .     S
C251  C254   1.50059       .     S
C254  C251   1.50059       .     S
C252  C253   1.39863       .     S
C253  C252   1.39863       .     S
C252  H268   0.95003       .     S
H268  C252   0.95003       .     S
C253  C255   1.48852       .     S
C255  C253   1.48852       .     S
C254  H257   0.98076       .     S
H257  C254   0.98076       .     S
C254  H258   0.97853       .     S
H258  C254   0.97853       .     S
C254  H259   0.98043       .     S
H259  C254   0.98043       .     S
C255  H260   0.98023       .     S
H260  C255   0.98023       .     S
C255  H261   0.97948       .     S
H261  C255   0.97948       .     S
C255  H262   0.97862       .     S
H262  C255   0.97862       .     S
C256  H263   0.97892       .     S
H263  C256   0.97892       .     S
C256  H264   0.98099       .     S
H264  C256   0.98099       .     S
C256  H265   0.98006       .     S
H265  C256   0.98006       .     S
S269  O270   1.45673       .     S
O270  S269   1.45673       .     S
S269  O271   1.44085       .     S
O271  S269   1.44085       .     S
S269  O272   1.45808       .     S
O272  S269   1.45808       .     S
S269  C273   1.75366       .     S
C273  S269   1.75366       .     S
C273  C274   1.36955       .     S
C274  C273   1.36955       .     S
C273  C276   1.41362       .     S
C276  C273   1.41362       .     S
C274  C275   1.43518       .     S
C275  C274   1.43518       .     S
C274  H287   0.94869       .     S
H287  C274   0.94869       .     S
C275  C277   1.42261       .     S
C277  C275   1.42261       .     S
C275  C285   1.40636       .     S
C285  C275   1.40636       .     S
C276  C286   1.38093       .     S
C286  C276   1.38093       .     S
C276  H288   0.94996       .     S
H288  C276   0.94996       .     S
C277  C278   1.40723       .     S
C278  C277   1.40723       .     S
C277  C286   1.41389       .     S
C286  C277   1.41389       .     S
C278  C279   1.39214       .     S
C279  C278   1.39214       .     S
C278  H289   0.94708       .     S
H289  C278   0.94708       .     S
C279  C280   1.43538       .     S
C280  C279   1.43538       .     S
C279  C284   1.39486       .     S
C284  C279   1.39486       .     S
C280  C281   1.36157       .     S
C281  C280   1.36157       .     S
C280  H290   0.95085       .     S
H290  C280   0.95085       .     S
C281  C282   1.41750       .     S
C282  C281   1.41750       .     S
C281  H291   0.94987       .     S
H291  C281   0.94987       .     S
C282  C283   1.36614       .     S
C283  C282   1.36614       .     S
C282  H292   0.94894       .     S
H292  C282   0.94894       .     S
C283  C284   1.44181       .     S
C284  C283   1.44181       .     S
C283  H293   0.95372       .     S
H293  C283   0.95372       .     S
C284  C285   1.41061       .     S
C285  C284   1.41061       .     S
C285  H294   0.94959       .     S
H294  C285   0.94959       .     S
C286  H295   0.95084       .     S
H295  C286   0.95084       .     S
N296  C297   1.51902       .     S
C297  N296   1.51902       .     S
N296  H316   0.91109       .     S
H316  N296   0.91109       .     S
N296  H317   0.90815   1_556     S
H317  N296   0.90815   1_554     S
N296  H318   0.90829       .     S
H318  N296   0.90829       .     S
C297  C298   1.53577       .     S
C298  C297   1.53577       .     S
C297  C304   1.52830       .     S
C304  C297   1.52830       .     S
C297  C310   1.52495   1_556     S
C310  C297   1.52495   1_554     S
C298  C299   1.38039       .     S
C299  C298   1.38039       .     S
C298  C303   1.39532       .     S
C303  C298   1.39532       .     S
C299  C300   1.38171       .     S
C300  C299   1.38171       .     S
C299  H319   0.94999       .     S
H319  C299   0.94999       .     S
C300  C301   1.38939       .     S
C301  C300   1.38939       .     S
C300  H320   0.94945       .     S
H320  C300   0.94945       .     S
C301  C302   1.38949       .     S
C302  C301   1.38949       .     S
C301  H321   0.95036       .     S
H321  C301   0.95036       .     S
C302  C303   1.37940       .     S
C303  C302   1.37940       .     S
C302  H322   0.94999       .     S
H322  C302   0.94999       .     S
C303  H323   0.94860   1_556     S
H323  C303   0.94860   1_554     S
C304  C305   1.40118       .     S
C305  C304   1.40118       .     S
C304  C309   1.40454       .     S
C309  C304   1.40454       .     S
C305  C306   1.37005       .     S
C306  C305   1.37005       .     S
C305  H324   0.95084       .     S
H324  C305   0.95084       .     S
C306  C307   1.38988       .     S
C307  C306   1.38988       .     S
C306  H325   0.94898       .     S
H325  C306   0.94898       .     S
C307  C308   1.37951       .     S
C308  C307   1.37951       .     S
C307  H326   0.95183       .     S
H326  C307   0.95183       .     S
C308  C309   1.40377       .     S
C309  C308   1.40377       .     S
C308  H327   0.95229   1_455     S
H327  C308   0.95229   1_655     S
C309  H328   0.94969       .     S
H328  C309   0.94969       .     S
C310  C311   1.38240       .     S
C311  C310   1.38240       .     S
C310  C315   1.40626       .     S
C315  C310   1.40626       .     S
C311  C312   1.42737       .     S
C312  C311   1.42737       .     S
C311  H329   0.95100       .     S
H329  C311   0.95100       .     S
C312  C313   1.35352       .     S
C313  C312   1.35352       .     S
C312  H330   0.95132       .     S
H330  C312   0.95132       .     S
C313  C314   1.37945       .     S
C314  C313   1.37945       .     S
C313  H331   0.94944       .     S
H331  C313   0.94944       .     S
C314  C315   1.36727       .     S
C315  C314   1.36727       .     S
C314  H332   0.94784       .     S
H332  C314   0.94784       .     S
C315  H333   0.95135       .     S
H333  C315   0.95135       .     S
C334  C335   1.40701   1_455     S
C335  C334   1.40701   1_655     S
C334  C339   1.32741       .     S
C339  C334   1.32741       .     S
C334  C342   1.56168       .     S
C342  C334   1.56168       .     S
C335  C336   1.40325       .     S
C336  C335   1.40325       .     S
C335  H352   0.94923       .     S
H352  C335   0.94923       .     S
C336  C337   1.38820   1_655     S
C337  C336   1.38820   1_455     S
C336  C340   1.51462       .     S
C340  C336   1.51462       .     S
C337  C338   1.35880       .     S
C338  C337   1.35880       .     S
C337  H353   0.94845   1_455     S
H353  C337   0.94845   1_655     S
C338  C339   1.39525       .     S
C339  C338   1.39525       .     S
C338  C341   1.51857       .     S
C341  C338   1.51857       .     S
C339  H354   0.94793       .     S
H354  C339   0.94793       .     S
C340  H343   0.97910       .     S
H343  C340   0.97910       .     S
C340  H344   0.97915       .     S
H344  C340   0.97915       .     S
C340  H345   0.98280       .     S
H345  C340   0.98280       .     S
C341  H346   0.98174       .     S
H346  C341   0.98174       .     S
C341  H347   0.98021       .     S
H347  C341   0.98021       .     S
C341  H348   0.98076       .     S
H348  C341   0.98076       .     S
C342  H349   0.97821       .     S
H349  C342   0.97821       .     S
C342  H350   0.98121       .     S
H350  C342   0.98121       .     S
C342  H351   0.97998       .     S
H351  C342   0.97998       .     S
N355  C356   1.52742       .     S
C356  N355   1.52742       .     S
N355  H375   0.90803       .     S
H375  N355   0.90803       .     S
N355  H376   0.91097       .     S
H376  N355   0.91097       .     S
N355  H377   0.90980       .     S
H377  N355   0.90980       .     S
C356  C357   1.53888       .     S
C357  C356   1.53888       .     S
C356  C363   1.52286       .     S
C363  C356   1.52286       .     S
C356  C369   1.50919       .     S
C369  C356   1.50919       .     S
C357  C358   1.37214       .     S
C358  C357   1.37214       .     S
C357  C362   1.38863       .     S
C362  C357   1.38863       .     S
C358  C359   1.40225       .     S
C359  C358   1.40225       .     S
C358  H378   0.95267       .     S
H378  C358   0.95267       .     S
C359  C360   1.36880       .     S
C360  C359   1.36880       .     S
C359  H379   0.94671       .     S
H379  C359   0.94671       .     S
C360  C361   1.38130       .     S
C361  C360   1.38130       .     S
C360  H380   0.94980       .     S
H380  C360   0.94980       .     S
C361  C362   1.41640       .     S
C362  C361   1.41640       .     S
C361  H381   0.95131       .     S
H381  C361   0.95131       .     S
C362  H382   0.95286       .     S
H382  C362   0.95286       .     S
C363  C364   1.40801       .     S
C364  C363   1.40801       .     S
C363  C368   1.40438       .     S
C368  C363   1.40438       .     S
C364  C365   1.38958       .     S
C365  C364   1.38958       .     S
C364  H383   0.94866       .     S
H383  C364   0.94866       .     S
C365  C366   1.39323       .     S
C366  C365   1.39323       .     S
C365  H384   0.94954   1_455     S
H384  C365   0.94954   1_655     S
C366  C367   1.36412       .     S
C367  C366   1.36412       .     S
C366  H385   0.95060       .     S
H385  C366   0.95060       .     S
C367  C368   1.38904       .     S
C368  C367   1.38904       .     S
C367  H386   0.94964       .     S
H386  C367   0.94964       .     S
C368  H387   0.95026       .     S
H387  C368   0.95026       .     S
C369  C370   1.39204       .     S
C370  C369   1.39204       .     S
C369  C374   1.38010       .     S
C374  C369   1.38010       .     S
C370  C371   1.38469       .     S
C371  C370   1.38469       .     S
C370  H388   0.95014       .     S
H388  C370   0.95014       .     S
C371  C372   1.39521       .     S
C372  C371   1.39521       .     S
C371  H389   0.95059       .     S
H389  C371   0.95059       .     S
C372  C373   1.36390       .     S
C373  C372   1.36390       .     S
C372  H390   0.95011       .     S
H390  C372   0.95011       .     S
C373  C374   1.42465       .     S
C374  C373   1.42465       .     S
C373  H391   0.95072       .     S
H391  C373   0.95072       .     S
C374  H392   0.95030       .     S
H392  C374   0.95030       .     S
N393  C394   1.52065       .     S
C394  N393   1.52065       .     S
N393  H413   0.90894       .     S
H413  N393   0.90894       .     S
N393  H414   0.91164   1_554     S
H414  N393   0.91164   1_556     S
N393  H415   0.90961       .     S
H415  N393   0.90961       .     S
C394  C395   1.54771       .     S
C395  C394   1.54771       .     S
C394  C398   1.51432   1_554     S
C398  C394   1.51432   1_556     S
C394  C403   1.54087       .     S
C403  C394   1.54087       .     S
C395  C410   1.38914       .     S
C410  C395   1.38914       .     S
C395  C412   1.37910       .     S
C412  C395   1.37910       .     S
C396  C397   1.38177       .     S
C397  C396   1.38177       .     S
C396  C412   1.37749       .     S
C412  C396   1.37749       .     S
C396  H416   0.95088       .     S
H416  C396   0.95088       .     S
C397  C409   1.38370       .     S
C409  C397   1.38370       .     S
C397  H417   0.94942       .     S
H417  C397   0.94942       .     S
C398  C399   1.40902       .     S
C399  C398   1.40902       .     S
C398  C402   1.39195       .     S
C402  C398   1.39195       .     S
C399  C400   1.37972       .     S
C400  C399   1.37972       .     S
C399  H418   0.95043       .     S
H418  C399   0.95043       .     S
C400  C401   1.36133       .     S
C401  C400   1.36133       .     S
C400  H419   0.94744       .     S
H419  C400   0.94744       .     S
C401  C411   1.37749       .     S
C411  C401   1.37749       .     S
C401  H420   0.95100       .     S
H420  C401   0.95100       .     S
C402  C411   1.39580       .     S
C411  C402   1.39580       .     S
C402  H421   0.94968       .     S
H421  C402   0.94968       .     S
C403  C404   1.39319       .     S
C404  C403   1.39319       .     S
C403  C408   1.38071       .     S
C408  C403   1.38071       .     S
C404  C405   1.38407       .     S
C405  C404   1.38407       .     S
C404  H422   0.94905       .     S
H422  C404   0.94905       .     S
C405  C406   1.36886       .     S
C406  C405   1.36886       .     S
C405  H423   0.95116       .     S
H423  C405   0.95116       .     S
C406  C407   1.35868       .     S
C407  C406   1.35868       .     S
C406  H424   0.94692       .     S
H424  C406   0.94692       .     S
C407  C408   1.39385       .     S
C408  C407   1.39385       .     S
C407  H425   0.95031       .     S
H425  C407   0.95031       .     S
C408  H426   0.94953   1_554     S
H426  C408   0.94953   1_556     S
C409  C410   1.37817       .     S
C410  C409   1.37817       .     S
C409  H427   0.95011       .     S
H427  C409   0.95011       .     S
C410  H428   0.95026       .     S
H428  C410   0.95026       .     S
C411  H429   0.94824       .     S
H429  C411   0.94824       .     S
C412  H430   0.95202       .     S
H430  C412   0.95202       .     S
S431  O432   1.45239       .     S
O432  S431   1.45239       .     S
S431  O433   1.45668       .     S
O433  S431   1.45668       .     S
S431  O434   1.46092       .     S
O434  S431   1.46092       .     S
S431  C435   1.74667       .     S
C435  S431   1.74667       .     S
C435  C436   1.37158       .     S
C436  C435   1.37158       .     S
C435  C439   1.42926       .     S
C439  C435   1.42926       .     S
C436  C438   1.43119       .     S
C438  C436   1.43119       .     S
C436  H449   0.95193       .     S
H449  C436   0.95193       .     S
C437  C440   1.42777       .     S
C440  C437   1.42777       .     S
C437  C441   1.39109       .     S
C441  C437   1.39109       .     S
C437  H450   0.94874       .     S
H450  C437   0.94874       .     S
C438  C440   1.41804       .     S
C440  C438   1.41804       .     S
C438  C447   1.39461       .     S
C447  C438   1.39461       .     S
C439  C448   1.35986       .     S
C448  C439   1.35986       .     S
C439  H451   0.94988       .     S
H451  C439   0.94988       .     S
C440  C448   1.42048       .     S
C448  C440   1.42048       .     S
C441  C442   1.43571       .     S
C442  C441   1.43571       .     S
C441  C446   1.41347       .     S
C446  C441   1.41347       .     S
C442  C443   1.35315       .     S
C443  C442   1.35315       .     S
C442  H452   0.94915       .     S
H452  C442   0.94915       .     S
C443  C444   1.40847       .     S
C444  C443   1.40847       .     S
C443  H453   0.95206       .     S
H453  C443   0.95206       .     S
C444  C445   1.37198       .     S
C445  C444   1.37198       .     S
C444  H454   0.95034       .     S
H454  C444   0.95034       .     S
C445  C446   1.41919       .     S
C446  C445   1.41919       .     S
C445  H455   0.94880       .     S
H455  C445   0.94880       .     S
C446  C447   1.42479       .     S
C447  C446   1.42479       .     S
C447  H456   0.94912       .     S
H456  C447   0.94912       .     S
C448  H457   0.94876       .     S
H457  C448   0.94876       .     S
N458  C459   1.52604       .     S
C459  N458   1.52604       .     S
N458  H478   0.91097       .     S
H478  N458   0.91097       .     S
N458  H479   0.91086       .     S
H479  N458   0.91086       .     S
N458  H480   0.90994   1_556     S
H480  N458   0.90994   1_554     S
C459  C460   1.51696   1_556     S
C460  C459   1.51696   1_554     S
C459  C465   1.54039       .     S
C465  C459   1.54039       .     S
C459  C470   1.52319       .     S
C470  C459   1.52319       .     S
C460  C461   1.41166       .     S
C461  C460   1.41166       .     S
C460  C464   1.38222       .     S
C464  C460   1.38222       .     S
C461  C462   1.38910       .     S
C462  C461   1.38910       .     S
C461  H481   0.95053       .     S
H481  C461   0.95053       .     S
C462  C463   1.38903       .     S
C463  C462   1.38903       .     S
C462  H482   0.95024       .     S
H482  C462   0.95024       .     S
C463  C477   1.38361       .     S
C477  C463   1.38361       .     S
C463  H483   0.95072       .     S
H483  C463   0.95072       .     S
C464  C477   1.41205       .     S
C477  C464   1.41205       .     S
C464  H484   0.95128       .     S
H484  C464   0.95128       .     S
C465  C466   1.38486       .     S
C466  C465   1.38486       .     S
C465  C469   1.39365       .     S
C469  C465   1.39365       .     S
C466  C467   1.38017       .     S
C467  C466   1.38017       .     S
C466  H485   0.94932       .     S
H485  C466   0.94932       .     S
C467  C468   1.39903       .     S
C468  C467   1.39903       .     S
C467  H486   0.94888       .     S
H486  C467   0.94888       .     S
C468  C476   1.38912       .     S
C476  C468   1.38912       .     S
C468  H487   0.95066       .     S
H487  C468   0.95066       .     S
C469  C476   1.38871       .     S
C476  C469   1.38871       .     S
C469  H488   0.95016       .     S
H488  C469   0.95016       .     S
C470  C471   1.38858       .     S
C471  C470   1.38858       .     S
C470  C475   1.38897       .     S
C475  C470   1.38897       .     S
C471  C472   1.40993       .     S
C472  C471   1.40993       .     S
C471  H489   0.95021       .     S
H489  C471   0.95021       .     S
C472  C473   1.36636       .     S
C473  C472   1.36636       .     S
C472  H490   0.95267   1_455     S
H490  C472   0.95267   1_655     S
C473  C474   1.35630       .     S
C474  C473   1.35630       .     S
C473  H491   0.95072       .     S
H491  C473   0.95072       .     S
C474  C475   1.40257       .     S
C475  C474   1.40257       .     S
C474  H492   0.94926       .     S
H492  C474   0.94926       .     S
C475  H493   0.94938       .     S
H493  C475   0.94938       .     S
C476  H494   0.94869       .     S
H494  C476   0.94869       .     S
C477  H495   0.95144       .     S
H495  C477   0.95144       .     S
C496  C497   1.36874       .     S
C497  C496   1.36874       .     S
C496  C501   1.34955       .     S
C501  C496   1.34955       .     S
C496  C502   1.53546       .     S
C502  C496   1.53546       .     S
C497  C498   1.40711       .     S
C498  C497   1.40711       .     S
C497  H514   0.95086       .     S
H514  C497   0.95086       .     S
C498  C499   1.35824       .     S
C499  C498   1.35824       .     S
C498  C503   1.51386       .     S
C503  C498   1.51386       .     S
C499  C500   1.37297       .     S
C500  C499   1.37297       .     S
C499  H515   0.94855       .     S
H515  C499   0.94855       .     S
C500  C501   1.40559       .     S
C501  C500   1.40559       .     S
C500  C504   1.52595       .     S
C504  C500   1.52595       .     S
C501  H516   0.94933       .     S
H516  C501   0.94933       .     S
C502  H505   0.98191       .     S
H505  C502   0.98191       .     S
C502  H506   0.97858       .     S
H506  C502   0.97858       .     S
C502  H507   0.97736       .     S
H507  C502   0.97736       .     S
C503  H508   0.98339       .     S
H508  C503   0.98339       .     S
C503  H509   0.98040       .     S
H509  C503   0.98040       .     S
C503  H510   0.97903       .     S
H510  C503   0.97903       .     S
C504  H511   0.97995       .     S
H511  C504   0.97995       .     S
C504  H512   0.98065       .     S
H512  C504   0.98065       .     S
C504  H513   0.97676       .     S
H513  C504   0.97676       .     S
C517  C518   1.40095       .     S
C518  C517   1.40095       .     S
C517  C522   1.40786       .     S
C522  C517   1.40786       .     S
C517  C523   1.49572       .     S
C523  C517   1.49572       .     S
C518  C519   1.38094       .     S
C519  C518   1.38094       .     S
C518  H535   0.94805       .     S
H535  C518   0.94805       .     S
C519  C520   1.38909       .     S
C520  C519   1.38909       .     S
C519  C524   1.52196       .     S
C524  C519   1.52196       .     S
C520  C521   1.38628       .     S
C521  C520   1.38628       .     S
C520  H536   0.95009       .     S
H536  C520   0.95009       .     S
C521  C522   1.38161       .     S
C522  C521   1.38161       .     S
C521  C525   1.52483       .     S
C525  C521   1.52483       .     S
C522  H537   0.94909       .     S
H537  C522   0.94909       .     S
C523  H526   0.97969       .     S
H526  C523   0.97969       .     S
C523  H527   0.98064       .     S
H527  C523   0.98064       .     S
C523  H528   0.98290       .     S
H528  C523   0.98290       .     S
C524  H529   0.97795       .     S
H529  C524   0.97795       .     S
C524  H530   0.98143       .     S
H530  C524   0.98143       .     S
C524  H531   0.98108       .     S
H531  C524   0.98108       .     S
C525  H532   0.97839       .     S
H532  C525   0.97839       .     S
C525  H533   0.98082       .     S
H533  C525   0.98082       .     S
C525  H534   0.97783       .     S
H534  C525   0.97783       .     S
C538  C539   1.35605       .     S
C539  C538   1.35605       .     S
C538  C543   1.40683       .     S
C543  C538   1.40683       .     S
C538  C544   1.51426       .     S
C544  C538   1.51426       .     S
C539  C540   1.38050       .     S
C540  C539   1.38050       .     S
C539  H556   0.94985       .     S
H556  C539   0.94985       .     S
C540  C541   1.37558       .     S
C541  C540   1.37558       .     S
C540  C545   1.53217       .     S
C545  C540   1.53217       .     S
C541  C542   1.36754       .     S
C542  C541   1.36754       .     S
C541  H557   0.95180       .     S
H557  C541   0.95180       .     S
C542  C543   1.37819       .     S
C543  C542   1.37819       .     S
C542  C546   1.51970   1_455     S
C546  C542   1.51970   1_655     S
C543  H558   0.95216       .     S
H558  C543   0.95216       .     S
C544  H547   0.97981       .     S
H547  C544   0.97981       .     S
C544  H548   0.98021       .     S
H548  C544   0.98021       .     S
C544  H549   0.97960       .     S
H549  C544   0.97960       .     S
C545  H550   0.97907       .     S
H550  C545   0.97907       .     S
C545  H551   0.98154       .     S
H551  C545   0.98154       .     S
C545  H552   0.97826       .     S
H552  C545   0.97826       .     S
C546  H553   0.98237       .     S
H553  C546   0.98237       .     S
C546  H554   0.97805   1_655     S
H554  C546   0.97805   1_455     S
C546  H555   0.97974       .     S
H555  C546   0.97974       .     S
N559  C560   1.52623       .     S
C560  N559   1.52623       .     S
N559  H579   0.91068       .     S
H579  N559   0.91068       .     S
N559  H580   0.91015       .     S
H580  N559   0.91015       .     S
N559  H581   0.90803       .     S
H581  N559   0.90803       .     S
C560  C561   1.52738       .     S
C561  C560   1.52738       .     S
C560  C566   1.53866       .     S
C566  C560   1.53866       .     S
C560  C573   1.54282       .     S
C573  C560   1.54282       .     S
C561  C562   1.36926       .     S
C562  C561   1.36926       .     S
C561  C563   1.41364       .     S
C563  C561   1.41364       .     S
C562  C570   1.39149   1_565     S
C570  C562   1.39149   1_545     S
C562  H582   0.94968       .     S
H582  C562   0.94968       .     S
C563  C564   1.37064   1_565     S
C564  C563   1.37064   1_545     S
C563  H583   0.95279       .     S
H583  C563   0.95279       .     S
C564  C565   1.38499       .     S
C565  C564   1.38499       .     S
C564  H584   0.95153       .     S
H584  C564   0.95153       .     S
C565  C570   1.37840       .     S
C570  C565   1.37840       .     S
C565  H585   0.94760       .     S
H585  C565   0.94760       .     S
C566  C568   1.37079       .     S
C568  C566   1.37079       .     S
C566  C569   1.38675       .     S
C569  C566   1.38675       .     S
C567  C569   1.39869       .     S
C569  C567   1.39869       .     S
C567  C571   1.36765       .     S
C571  C567   1.36765       .     S
C567  H586   0.95185       .     S
H586  C567   0.95185       .     S
C568  C572   1.38434       .     S
C572  C568   1.38434       .     S
C568  H587   0.95073       .     S
H587  C568   0.95073       .     S
C569  H588   0.94894       .     S
H588  C569   0.94894       .     S
C570  H589   0.95167       .     S
H589  C570   0.95167       .     S
C571  C572   1.38488       .     S
C572  C571   1.38488       .     S
C571  H590   0.95033       .     S
H590  C571   0.95033       .     S
C572  H591   0.94906       .     S
H591  C572   0.94906       .     S
C573  C574   1.38024       .     S
C574  C573   1.38024       .     S
C573  C578   1.39114       .     S
C578  C573   1.39114       .     S
C574  C575   1.41166       .     S
C575  C574   1.41166       .     S
C574  H592   0.95173       .     S
H592  C574   0.95173       .     S
C575  C576   1.36903       .     S
C576  C575   1.36903       .     S
C575  H593   0.95153       .     S
H593  C575   0.95153       .     S
C576  C577   1.37793       .     S
C577  C576   1.37793       .     S
C576  H594   0.95085       .     S
H594  C576   0.95085       .     S
C577  C578   1.38758       .     S
C578  C577   1.38758       .     S
C577  H595   0.95043       .     S
H595  C577   0.95043       .     S
C578  H596   0.95152       .     S
H596  C578   0.95152       .     S
N597  C598   1.53796       .     S
C598  N597   1.53796       .     S
N597  H617   0.91118       .     S
H617  N597   0.91118       .     S
N597  H618   0.91012   1_554     S
H618  N597   0.91012   1_556     S
N597  H619   0.90896       .     S
H619  N597   0.90896       .     S
C598  C599   1.52495       .     S
C599  C598   1.52495       .     S
C598  C605   1.52616   1_554     S
C605  C598   1.52616   1_556     S
C598  C611   1.52374       .     S
C611  C598   1.52374       .     S
C599  C600   1.38763       .     S
C600  C599   1.38763       .     S
C599  C604   1.38729       .     S
C604  C599   1.38729       .     S
C600  C601   1.40061       .     S
C601  C600   1.40061       .     S
C600  H620   0.95066       .     S
H620  C600   0.95066       .     S
C601  C602   1.39393       .     S
C602  C601   1.39393       .     S
C601  H621   0.94782       .     S
H621  C601   0.94782       .     S
C602  C603   1.36571       .     S
C603  C602   1.36571       .     S
C602  H622   0.94903       .     S
H622  C602   0.94903       .     S
C603  C604   1.39469       .     S
C604  C603   1.39469       .     S
C603  H623   0.94913       .     S
H623  C603   0.94913       .     S
C604  H624   0.94988       .     S
H624  C604   0.94988       .     S
C605  C606   1.37222       .     S
C606  C605   1.37222       .     S
C605  C610   1.40421       .     S
C610  C605   1.40421       .     S
C606  C607   1.37906       .     S
C607  C606   1.37906       .     S
C606  H625   0.95092       .     S
H625  C606   0.95092       .     S
C607  C608   1.38943       .     S
C608  C607   1.38943       .     S
C607  H626   0.94857       .     S
H626  C607   0.94857       .     S
C608  C609   1.35074       .     S
C609  C608   1.35074       .     S
C608  H627   0.95161       .     S
H627  C608   0.95161       .     S
C609  C610   1.37863       .     S
C610  C609   1.37863       .     S
C609  H628   0.94794       .     S
H628  C609   0.94794       .     S
C610  H629   0.95240       .     S
H629  C610   0.95240       .     S
C611  C612   1.38127       .     S
C612  C611   1.38127       .     S
C611  C616   1.38913       .     S
C616  C611   1.38913       .     S
C612  C613   1.40253       .     S
C613  C612   1.40253       .     S
C612  H630   0.95166       .     S
H630  C612   0.95166       .     S
C613  C614   1.38743       .     S
C614  C613   1.38743       .     S
C613  H631   0.94751       .     S
H631  C613   0.94751       .     S
C614  C615   1.36352       .     S
C615  C614   1.36352       .     S
C614  H632   0.95119       .     S
H632  C614   0.95119       .     S
C615  C616   1.39906       .     S
C616  C615   1.39906       .     S
C615  H633   0.94763       .     S
H633  C615   0.94763       .     S
C616  H634   0.95280       .     S
H634  C616   0.95280       .     S
C635  C636   1.39788       .     S
C636  C635   1.39788       .     S
C635  C640   1.39113       .     S
C640  C635   1.39113       .     S
C635  C641   1.54450       .     S
C641  C635   1.54450       .     S
C636  C637   1.38819       .     S
C637  C636   1.38819       .     S
C636  H653   0.95163       .     S
H653  C636   0.95163       .     S
C637  C638   1.38356       .     S
C638  C637   1.38356       .     S
C637  C642   1.52852       .     S
C642  C637   1.52852       .     S
C638  C639   1.38296       .     S
C639  C638   1.38296       .     S
C638  H654   0.94856       .     S
H654  C638   0.94856       .     S
C639  C640   1.36897       .     S
C640  C639   1.36897       .     S
C639  C643   1.50444   1_545     S
C643  C639   1.50444   1_565     S
C640  H655   0.95024       .     S
H655  C640   0.95024       .     S
C641  H644   0.97874       .     S
H644  C641   0.97874       .     S
C641  H645   0.98238       .     S
H645  C641   0.98238       .     S
C641  H646   0.97999       .     S
H646  C641   0.97999       .     S
C642  H647   0.98016       .     S
H647  C642   0.98016       .     S
C642  H648   0.98172       .     S
H648  C642   0.98172       .     S
C642  H649   0.98058       .     S
H649  C642   0.98058       .     S
C643  H650   0.98265       .     S
H650  C643   0.98265       .     S
C643  H651   0.98201       .     S
H651  C643   0.98201       .     S
C643  H652   0.98238       .     S
H652  C643   0.98238       .     S
S656  O657   1.46692       .     S
O657  S656   1.46692       .     S
S656  O658   1.46263       .     S
O658  S656   1.46263       .     S
S656  O659   1.46083       .     S
O659  S656   1.46083       .     S
S656  C660   1.73660       .     S
C660  S656   1.73660       .     S
C660  C661   1.35390       .     S
C661  C660   1.35390       .     S
C660  C673   1.41813       .     S
C673  C660   1.41813       .     S
C661  C662   1.44693       .     S
C662  C661   1.44693       .     S
C661  H674   0.95053       .     S
H674  C661   0.95053       .     S
C662  C663   1.40710       .     S
C663  C662   1.40710       .     S
C662  C671   1.40971       .     S
C671  C662   1.40971       .     S
C663  C664   1.40358       .     S
C664  C663   1.40358       .     S
C663  H675   0.95059       .     S
H675  C663   0.95059       .     S
C664  C665   1.44486       .     S
C665  C664   1.44486       .     S
C664  C669   1.38044       .     S
C669  C664   1.38044       .     S
C665  C666   1.39775       .     S
C666  C665   1.39775       .     S
C665  H676   0.95241       .     S
H676  C665   0.95241       .     S
C666  C667   1.35739       .     S
C667  C666   1.35739       .     S
C666  H677   0.94861       .     S
H677  C666   0.94861       .     S
C667  C668   1.37842       .     S
C668  C667   1.37842       .     S
C667  H678   0.95019       .     S
H678  C667   0.95019       .     S
C668  C669   1.44824       .     S
C669  C668   1.44824       .     S
C668  H679   0.94997       .     S
H679  C668   0.94997       .     S
C669  C670   1.39468       .     S
C670  C669   1.39468       .     S
C670  C671   1.41354       .     S
C671  C670   1.41354       .     S
C670  H680   0.94938       .     S
H680  C670   0.94938       .     S
C671  C672   1.41402       .     S
C672  C671   1.41402       .     S
C672  C673   1.37230       .     S
C673  C672   1.37230       .     S
C672  H681   0.94836       .     S
H681  C672   0.94836       .     S
C673  H682   0.95031       .     S
H682  C673   0.95031       .     S
S683  O684   1.46295       .     S
O684  S683   1.46295       .     S
S683  O685   1.44627       .     S
O685  S683   1.44627       .     S
S683  O686   1.45649       .     S
O686  S683   1.45649       .     S
S683  C687   1.74816       .     S
C687  S683   1.74816       .     S
C687  C688   1.35457       .     S
C688  C687   1.35457       .     S
C687  C700   1.43172       .     S
C700  C687   1.43172       .     S
C688  C689   1.42497       .     S
C689  C688   1.42497       .     S
C688  H701   0.95164       .     S
H701  C688   0.95164       .     S
C689  C690   1.39763       .     S
C690  C689   1.39763       .     S
C689  C698   1.42098       .     S
C698  C689   1.42098       .     S
C690  C691   1.40341       .     S
C691  C690   1.40341       .     S
C690  H702   0.95005       .     S
H702  C690   0.95005       .     S
C691  C692   1.40291       .     S
C692  C691   1.40291       .     S
C691  C696   1.42577       .     S
C696  C691   1.42577       .     S
C692  C693   1.36674       .     S
C693  C692   1.36674       .     S
C692  H703   0.95266       .     S
H703  C692   0.95266       .     S
C693  C694   1.39408       .     S
C694  C693   1.39408       .     S
C693  H704   0.94836       .     S
H704  C693   0.94836       .     S
C694  C695   1.37323       .     S
C695  C694   1.37323       .     S
C694  H705   0.95184   1_545     S
H705  C694   0.95184   1_565     S
C695  C696   1.42658       .     S
C696  C695   1.42658       .     S
C695  H706   0.95086       .     S
H706  C695   0.95086       .     S
C696  C697   1.37941       .     S
C697  C696   1.37941       .     S
C697  C698   1.40005       .     S
C698  C697   1.40005       .     S
C697  H707   0.95018       .     S
H707  C697   0.95018       .     S
C698  C699   1.43332       .     S
C699  C698   1.43332       .     S
C699  C700   1.35770       .     S
C700  C699   1.35770       .     S
C699  H708   0.95163       .     S
H708  C699   0.95163       .     S
C700  H709   0.94923       .     S
H709  C700   0.94923       .     S
N710  C711   1.49117       .     S
C711  N710   1.49117       .     S
N710  H730   0.91237       .     S
H730  N710   0.91237       .     S
N710  H731   0.91199       .     S
H731  N710   0.91199       .     S
N710  H732   0.91034       .     S
H732  N710   0.91034       .     S
C711  C712   1.53215       .     S
C712  C711   1.53215       .     S
C711  C718   1.53988       .     S
C718  C711   1.53988       .     S
C711  C724   1.56201       .     S
C724  C711   1.56201       .     S
C712  C713   1.38548       .     S
C713  C712   1.38548       .     S
C712  C717   1.38796       .     S
C717  C712   1.38796       .     S
C713  C714   1.39071       .     S
C714  C713   1.39071       .     S
C713  H733   0.95290       .     S
H733  C713   0.95290       .     S
C714  C715   1.39107       .     S
C715  C714   1.39107       .     S
C714  H734   0.95097       .     S
H734  C714   0.95097       .     S
C715  C716   1.37279       .     S
C716  C715   1.37279       .     S
C715  H735   0.94847       .     S
H735  C715   0.94847       .     S
C716  C717   1.39305       .     S
C717  C716   1.39305       .     S
C716  H736   0.94928       .     S
H736  C716   0.94928       .     S
C717  H737   0.94903       .     S
H737  C717   0.94903       .     S
C718  C719   1.37962       .     S
C719  C718   1.37962       .     S
C718  C723   1.40284       .     S
C723  C718   1.40284       .     S
C719  C720   1.42092       .     S
C720  C719   1.42092       .     S
C719  H738   0.95351       .     S
H738  C719   0.95351       .     S
C720  C721   1.37227       .     S
C721  C720   1.37227       .     S
C720  H739   0.95053       .     S
H739  C720   0.95053       .     S
C721  C722   1.35041       .     S
C722  C721   1.35041       .     S
C721  H740   0.94875       .     S
H740  C721   0.94875       .     S
C722  C723   1.40734       .     S
C723  C722   1.40734       .     S
C722  H741   0.95019       .     S
H741  C722   0.95019       .     S
C723  H742   0.95031       .     S
H742  C723   0.95031       .     S
C724  C725   1.38454       .     S
C725  C724   1.38454       .     S
C724  C729   1.39024       .     S
C729  C724   1.39024       .     S
C725  C726   1.38454       .     S
C726  C725   1.38454       .     S
C725  H743   0.94681       .     S
H743  C725   0.94681       .     S
C726  C727   1.38076       .     S
C727  C726   1.38076       .     S
C726  H744   0.95226       .     S
H744  C726   0.95226       .     S
C727  C728   1.34009       .     S
C728  C727   1.34009       .     S
C727  H745   0.94942       .     S
H745  C727   0.94942       .     S
C728  C729   1.40949       .     S
C729  C728   1.40949       .     S
C728  H746   0.95261       .     S
H746  C728   0.95261       .     S
C729  H747   0.95079       .     S
H747  C729   0.95079       .     S
C748  C749   1.35579       .     S
C749  C748   1.35579       .     S
C748  C753   1.42292       .     S
C753  C748   1.42292       .     S
C748  C754   1.50371       .     S
C754  C748   1.50371       .     S
C749  C750   1.34727       .     S
C750  C749   1.34727       .     S
C749  H766   0.94899       .     S
H766  C749   0.94899       .     S
C750  C751   1.41143       .     S
C751  C750   1.41143       .     S
C750  C756   1.48331       .     S
C756  C750   1.48331       .     S
C751  C752   1.35216       .     S
C752  C751   1.35216       .     S
C751  H768   0.94944       .     S
H768  C751   0.94944       .     S
C752  C753   1.38130       .     S
C753  C752   1.38130       .     S
C752  C755   1.53355       .     S
C755  C752   1.53355       .     S
C753  H767   0.95278       .     S
H767  C753   0.95278       .     S
C754  H757   0.98056       .     S
H757  C754   0.98056       .     S
C754  H758   0.97884       .     S
H758  C754   0.97884       .     S
C754  H759   0.97943       .     S
H759  C754   0.97943       .     S
C755  H760   0.98001       .     S
H760  C755   0.98001       .     S
C755  H761   0.98378       .     S
H761  C755   0.98378       .     S
C755  H762   0.97909       .     S
H762  C755   0.97909       .     S
C756  H763   0.98126       .     S
H763  C756   0.98126       .     S
C756  H764   0.97893       .     S
H764  C756   0.97893       .     S
C756  H765   0.98030       .     S
H765  C756   0.98030       .     S
S769  O770   1.45427       .     S
O770  S769   1.45427       .     S
S769  O771   1.45646       .     S
O771  S769   1.45646       .     S
S769  O772   1.44907       .     S
O772  S769   1.44907       .     S
S769  C773   1.75717       .     S
C773  S769   1.75717       .     S
C773  C774   1.34060       .     S
C774  C773   1.34060       .     S
C773  C778   1.41919       .     S
C778  C773   1.41919       .     S
C774  C775   1.43179       .     S
C775  C774   1.43179       .     S
C774  H787   0.95006       .     S
H787  C774   0.95006       .     S
C775  C776   1.43246       .     S
C776  C775   1.43246       .     S
C775  C777   1.37838       .     S
C777  C775   1.37838       .     S
C776  C779   1.41605       .     S
C779  C776   1.41605       .     S
C776  C780   1.39152       .     S
C780  C776   1.39152       .     S
C777  C786   1.42442       .     S
C786  C777   1.42442       .     S
C777  H788   0.94806       .     S
H788  C777   0.94806       .     S
C778  C779   1.37464       .     S
C779  C778   1.37464       .     S
C778  H789   0.95004       .     S
H789  C778   0.95004       .     S
C779  H790   0.95178       .     S
H790  C779   0.95178       .     S
C780  C781   1.38837       .     S
C781  C780   1.38837       .     S
C780  H791   0.94874       .     S
H791  C780   0.94874       .     S
C781  C782   1.45568   1_455     S
C782  C781   1.45568   1_655     S
C781  C786   1.40872       .     S
C786  C781   1.40872       .     S
C782  C783   1.37521       .     S
C783  C782   1.37521       .     S
C782  H792   0.94957       .     S
H792  C782   0.94957       .     S
C783  C784   1.36752       .     S
C784  C783   1.36752       .     S
C783  H793   0.94871       .     S
H793  C783   0.94871       .     S
C784  C785   1.34768   1_655     S
C785  C784   1.34767   1_455     S
C784  H794   0.95009       .     S
H794  C784   0.95009       .     S
C785  C786   1.42218       .     S
C786  C785   1.42218       .     S
C785  H795   0.94834       .     S
H795  C785   0.94834       .     S
C796  C797   1.38117       .     S
C797  C796   1.38117       .     S
C796  C801   1.40109       .     S
C801  C796   1.40109       .     S
C796  H814   0.95114       .     S
H814  C796   0.95114       .     S
C797  C798   1.38508       .     S
C798  C797   1.38508       .     S
C797  C802   1.49139       .     S
C802  C797   1.49139       .     S
C798  C799   1.41405       .     S
C799  C798   1.41405       .     S
C798  H815   0.95138       .     S
H815  C798   0.95138       .     S
C799  C800   1.37445       .     S
C800  C799   1.37445       .     S
C799  C804   1.49257       .     S
C804  C799   1.49257       .     S
C800  C801   1.37610       .     S
C801  C800   1.37610       .     S
C800  H816   0.94951       .     S
H816  C800   0.94951       .     S
C801  C803   1.48820       .     S
C803  C801   1.48820       .     S
C802  H805   0.97983       .     S
H805  C802   0.97983       .     S
C802  H806   0.97756       .     S
H806  C802   0.97756       .     S
C802  H807   0.98132       .     S
H807  C802   0.98132       .     S
C803  H808   0.97874       .     S
H808  C803   0.97874       .     S
C803  H809   0.97950       .     S
H809  C803   0.97950       .     S
C803  H810   0.98028       .     S
H810  C803   0.98028       .     S
C804  H811   0.97913       .     S
H811  C804   0.97913       .     S
C804  H812   0.97854       .     S
H812  C804   0.97854       .     S
C804  H813   0.98383       .     S
H813  C804   0.98383       .     S
S817  O818   1.44882       .     S
O818  S817   1.44882       .     S
S817  O819   1.46240   1_556     S
O819  S817   1.46240   1_554     S
S817  O820   1.45338       .     S
O820  S817   1.45338       .     S
S817  C821   1.75878       .     S
C821  S817   1.75878       .     S
C821  C822   1.43304       .     S
C822  C821   1.43304       .     S
C821  C824   1.34997   1_556     S
C824  C821   1.34997   1_554     S
C822  C823   1.36492       .     S
C823  C822   1.36492       .     S
C822  H835   0.94893       .     S
H835  C822   0.94893       .     S
C823  C827   1.40441       .     S
C827  C823   1.40441       .     S
C823  H836   0.95242       .     S
H836  C823   0.95242       .     S
C824  C826   1.43017       .     S
C826  C824   1.43017       .     S
C824  H837   0.95032       .     S
H837  C824   0.95032       .     S
C825  C826   1.40085       .     S
C826  C825   1.40085       .     S
C825  C833   1.38341       .     S
C833  C825   1.38341       .     S
C825  H838   0.95122       .     S
H838  C825   0.95122       .     S
C826  C827   1.42759   1_554     S
C827  C826   1.42759   1_556     S
C827  C834   1.40496       .     S
C834  C827   1.40496       .     S
C828  C831   1.41641       .     S
C831  C828   1.41641       .     S
C828  C833   1.42417   1_556     S
C833  C828   1.42417   1_554     S
C828  C834   1.38720       .     S
C834  C828   1.38720       .     S
C829  C830   1.37234       .     S
C830  C829   1.37234       .     S
C829  C831   1.35077   1_654     S
C831  C829   1.35077   1_456     S
C829  H839   0.95084       .     S
H839  C829   0.95084       .     S
C830  C832   1.37118       .     S
C832  C830   1.37118       .     S
C830  H840   0.94825       .     S
H840  C830   0.94825       .     S
C831  H841   0.95201       .     S
H841  C831   0.95201       .     S
C832  C833   1.39890   1_655     S
C833  C832   1.39890   1_455     S
C832  H842   0.94966       .     S
H842  C832   0.94966       .     S
C834  H843   0.94714       .     S
H843  C834   0.94714       .     S
C844  C845   1.39109       .     S
C845  C844   1.39109       .     S
C844  C849   1.37410       .     S
C849  C844   1.37410       .     S
C844  C851   1.52160       .     S
C851  C844   1.52160       .     S
C845  C846   1.38481       .     S
C846  C845   1.38481       .     S
C845  H862   0.94914       .     S
H862  C845   0.94914       .     S
C846  C847   1.37613       .     S
C847  C846   1.37613       .     S
C846  C850   1.50297       .     S
C850  C846   1.50297       .     S
C847  C848   1.36779       .     S
C848  C847   1.36779       .     S
C847  H863   0.94975       .     S
H863  C847   0.94975       .     S
C848  C849   1.39966       .     S
C849  C848   1.39966       .     S
C848  C852   1.51323       .     S
C852  C848   1.51323       .     S
C849  H864   0.95075       .     S
H864  C849   0.95075       .     S
C850  H853   0.98147       .     S
H853  C850   0.98147       .     S
C850  H854   0.98045       .     S
H854  C850   0.98045       .     S
C850  H855   0.98069       .     S
H855  C850   0.98069       .     S
C851  H856   0.98199       .     S
H856  C851   0.98199       .     S
C851  H857   0.97887       .     S
H857  C851   0.97887       .     S
C851  H858   0.97990       .     S
H858  C851   0.97990       .     S
C852  H859   0.97756       .     S
H859  C852   0.97756       .     S
C852  H860   0.97881       .     S
H860  C852   0.97881       .     S
C852  H861   0.98198       .     S
H861  C852   0.98198       .     S
S865  O866   1.45689   1_554     S
O866  S865   1.45689   1_556     S
S865  O867   1.44918       .     S
O867  S865   1.44918       .     S
S865  O868   1.45264   1_554     S
O868  S865   1.45263   1_556     S
S865  C869   1.78725       .     S
C869  S865   1.78725       .     S
C869  C870   1.35016   1_554     S
C870  C869   1.35016   1_556     S
C869  C882   1.39946       .     S
C882  C869   1.39946       .     S
C870  C871   1.39937       .     S
C871  C870   1.39937       .     S
C870  H883   0.95024       .     S
H883  C870   0.95024       .     S
C871  C872   1.41061       .     S
C872  C871   1.41061       .     S
C871  C880   1.44272   1_556     S
C880  C871   1.44272   1_554     S
C872  C873   1.40046       .     S
C873  C872   1.40046       .     S
C872  H884   0.95002       .     S
H884  C872   0.95002       .     S
C873  C874   1.43727       .     S
C874  C873   1.43727       .     S
C873  C878   1.42318   1_556     S
C878  C873   1.42318   1_554     S
C874  C875   1.34294       .     S
C875  C874   1.34294       .     S
C874  H885   0.94950       .     S
H885  C874   0.94950       .     S
C875  C876   1.41826       .     S
C876  C875   1.41826       .     S
C875  H886   0.95027       .     S
H886  C875   0.95027       .     S
C876  C877   1.32158   1_556     S
C877  C876   1.32158   1_554     S
C876  H887   0.95051       .     S
H887  C876   0.95051       .     S
C877  C878   1.44931       .     S
C878  C877   1.44931       .     S
C877  H888   0.94806       .     S
H888  C877   0.94806       .     S
C878  C879   1.42556       .     S
C879  C878   1.42556       .     S
C879  C880   1.39132       .     S
C880  C879   1.39132       .     S
C879  H889   0.94810       .     S
H889  C879   0.94810       .     S
C880  C881   1.37948       .     S
C881  C880   1.37948       .     S
C881  C882   1.37012       .     S
C882  C881   1.37012       .     S
C881  H890   0.94998       .     S
H890  C881   0.94998       .     S
C882  H891   0.95041       .     S
H891  C882   0.95041       .     S
N892  C893   1.50047       .     S
C893  N892   1.50047       .     S
N892  H912   0.91063       .     S
H912  N892   0.91063       .     S
N892  H913   0.90919       .     S
H913  N892   0.90919       .     S
N892  H914   0.90990       .     S
H914  N892   0.90990       .     S
C893  C894   1.53540       .     S
C894  C893   1.53540       .     S
C893  C896   1.52253       .     S
C896  C893   1.52253       .     S
C893  C899   1.53173       .     S
C899  C893   1.53173       .     S
C894  C895   1.41346       .     S
C895  C894   1.41346       .     S
C894  C905   1.39994       .     S
C905  C894   1.39994       .     S
C895  C902   1.38949       .     S
C902  C895   1.38949       .     S
C895  H915   0.95087       .     S
H915  C895   0.95087       .     S
C896  C897   1.41468       .     S
C897  C896   1.41468       .     S
C896  C911   1.38755       .     S
C911  C896   1.38755       .     S
C897  C898   1.39027       .     S
C898  C897   1.39027       .     S
C897  H916   0.94965       .     S
H916  C897   0.94965       .     S
C898  C909   1.37454       .     S
C909  C898   1.37454       .     S
C898  H917   0.94859       .     S
H917  C898   0.94859       .     S
C899  C900   1.37644       .     S
C900  C899   1.37644       .     S
C899  C901   1.39648       .     S
C901  C899   1.39648       .     S
C900  C906   1.38709       .     S
C906  C900   1.38709       .     S
C900  H918   0.95282       .     S
H918  C900   0.95282       .     S
C901  C907   1.39251       .     S
C907  C901   1.39251       .     S
C901  H919   0.95175       .     S
H919  C901   0.95175       .     S
C902  C903   1.38331       .     S
C903  C902   1.38331       .     S
C902  H920   0.94870       .     S
H920  C902   0.94870       .     S
C903  C904   1.36899       .     S
C904  C903   1.36899       .     S
C903  H921   0.94957       .     S
H921  C903   0.94957       .     S
C904  C905   1.39148       .     S
C905  C904   1.39148       .     S
C904  H922   0.95136       .     S
H922  C904   0.95136       .     S
C905  H923   0.95114       .     S
H923  C905   0.95114       .     S
C906  C908   1.38377       .     S
C908  C906   1.38377       .     S
C906  H924   0.95023       .     S
H924  C906   0.95023       .     S
C907  C908   1.35407       .     S
C908  C907   1.35407       .     S
C907  H925   0.94960       .     S
H925  C907   0.94960       .     S
C908  H926   0.95285       .     S
H926  C908   0.95285       .     S
C909  C910   1.38449       .     S
C910  C909   1.38449       .     S
C909  H927   0.94985       .     S
H927  C909   0.94985       .     S
C910  C911   1.39606       .     S
C911  C910   1.39606       .     S
C910  H928   0.94826       .     S
H928  C910   0.94826       .     S
C911  H929   0.95222       .     S
H929  C911   0.95222       .     S
S930  O931   1.46100       .     S
O931  S930   1.46100       .     S
S930  O932   1.44135       .     S
O932  S930   1.44135       .     S
S930  O933   1.44850       .     S
O933  S930   1.44850       .     S
S930  C934   1.76769       .     S
C934  S930   1.76769       .     S
C934  C935   1.34365       .     S
C935  C934   1.34365       .     S
C934  C947   1.42147       .     S
C947  C934   1.42147       .     S
C935  C936   1.41446       .     S
C936  C935   1.41446       .     S
C935  H948   0.94951       .     S
H948  C935   0.94951       .     S
C936  C937   1.39808       .     S
C937  C936   1.39808       .     S
C936  C945   1.44749       .     S
C945  C936   1.44749       .     S
C937  C938   1.41635       .     S
C938  C937   1.41635       .     S
C937  H949   0.94917       .     S
H949  C937   0.94917       .     S
C938  C939   1.39212       .     S
C939  C938   1.39212       .     S
C938  C943   1.42222       .     S
C943  C938   1.42222       .     S
C939  C940   1.39317   1_455     S
C940  C939   1.39317   1_655     S
C939  H950   0.94877       .     S
H950  C939   0.94877       .     S
C940  C941   1.42451       .     S
C941  C940   1.42451       .     S
C940  H951   0.94923       .     S
H951  C940   0.94923       .     S
C941  C942   1.34922       .     S
C942  C941   1.34922       .     S
C941  H952   0.95006       .     S
H952  C941   0.95006       .     S
C942  C943   1.45350   1_655     S
C943  C942   1.45350   1_455     S
C942  H953   0.94957       .     S
H953  C942   0.94957       .     S
C943  C944   1.37207       .     S
C944  C943   1.37207       .     S
C944  C945   1.39642       .     S
C945  C944   1.39642       .     S
C944  H954   0.94987       .     S
H954  C944   0.94987       .     S
C945  C946   1.40334       .     S
C946  C945   1.40334       .     S
C946  C947   1.35162       .     S
C947  C946   1.35162       .     S
C946  H955   0.95040       .     S
H955  C946   0.95040       .     S
C947  H956   0.94923       .     S
H956  C947   0.94923       .     S
S957  O958   1.45080       .     S
O958  S957   1.45080       .     S
S957  O959   1.44804       .     S
O959  S957   1.44804       .     S
S957  O960   1.46339   1_554     S
O960  S957   1.46339   1_556     S
S957  C961   1.76392       .     S
C961  S957   1.76392       .     S
C961  C962   1.41122       .     S
C962  C961   1.41122       .     S
C961  C964   1.35544   1_554     S
C964  C961   1.35544   1_556     S
C962  C963   1.36781       .     S
C963  C962   1.36781       .     S
C962  H975   0.94894       .     S
H975  C962   0.94894       .     S
C963  C965   1.43400       .     S
C965  C963   1.43400       .     S
C963  H976   0.94999       .     S
H976  C963   0.94999       .     S
C964  C966   1.43520   1_556     S
C966  C964   1.43520   1_554     S
C964  H977   0.95022       .     S
H977  C964   0.95022       .     S
C965  C966   1.43092       .     S
C966  C965   1.43092       .     S
C965  C974   1.38926       .     S
C974  C965   1.38926       .     S
C966  C967   1.40305   1_554     S
C967  C966   1.40305   1_556     S
C967  C969   1.39468       .     S
C969  C967   1.39468       .     S
C967  H978   0.94967       .     S
H978  C967   0.94967       .     S
C968  C969   1.42396   1_554     S
C969  C968   1.42397   1_556     S
C968  C970   1.44139       .     S
C970  C968   1.44139       .     S
C968  C974   1.40367       .     S
C974  C968   1.40367       .     S
C969  C973   1.42880       .     S
C973  C969   1.42880       .     S
C970  C971   1.34478       .     S
C971  C970   1.34478       .     S
C970  H979   0.95163       .     S
H979  C970   0.95163       .     S
C971  C972   1.41057   1_554     S
C972  C971   1.41057   1_556     S
C971  H980   0.95085       .     S
H980  C971   0.95085       .     S
C972  C973   1.37558       .     S
C973  C972   1.37558       .     S
C972  H981   0.95216       .     S
H981  C972   0.95216       .     S
C973  H982   0.95059       .     S
H982  C973   0.95059       .     S
C974  H983   0.94764       .     S
H983  C974   0.94764       .     S
C984  C989   1.51538   1_545     S
C989  C984   1.51538   1_565     S
C984  H993   0.98000       .     S
H993  C984   0.98000       .     S
C984  H994   0.98030       .     S
H994  C984   0.98030       .     S
C984  H995   0.98034       .     S
H995  C984   0.98034       .     S
C985  C986   1.37683       .     S
C986  C985   1.37683       .     S
C985  C990   1.41720   1_565     S
C990  C985   1.41720   1_545     S
C985  C992   1.51989   1_455     S
C992  C985   1.51989   1_655     S
C986  C987   1.40203       .     S
C987  C986   1.40203       .     S
C986  H1002  0.95058   1_455     S
H1002 C986   0.95058   1_655     S
C987  C988   1.37429       .     S
C988  C987   1.37429       .     S
C987  C991   1.48816       .     S
C991  C987   1.48816       .     S
C988  C989   1.38366       .     S
C989  C988   1.38366       .     S
C988  H1003  0.95180       .     S
H1003 C988   0.95180       .     S
C989  C990   1.42585   1_565     S
C990  C989   1.42585   1_545     S
C990  H1004  0.95246       .     S
H1004 C990   0.95246       .     S
C991  H996   0.98240   1_455     S
H996  C991   0.98240   1_655     S
C991  H997   0.97925       .     S
H997  C991   0.97925       .     S
C991  H998   0.98065       .     S
H998  C991   0.98065       .     S
C992  H999   0.97875   1_655     S
H999  C992   0.97875   1_455     S
C992  H1000  0.98116   1_565     S
H1000 C992   0.98116   1_545     S
C992  H1001  0.97907       .     S
H1001 C992   0.97907       .     S
C1005 C1006  1.40018   1_655     S
C1006 C1005  1.40018   1_455     S
C1005 C1010  1.44883       .     S
C1010 C1005  1.44883       .     S
C1005 H1023  0.95235       .     S
H1023 C1005  0.95235       .     S
C1006 C1007  1.40270       .     S
C1007 C1006  1.40270       .     S
C1006 C1012  1.50628       .     S
C1012 C1006  1.50628       .     S
C1007 C1008  1.44088   1_455     S
C1008 C1007  1.44088   1_655     S
C1007 H1024  0.94855       .     S
H1024 C1007  0.94855       .     S
C1008 C1009  1.35540       .     S
C1009 C1008  1.35540       .     S
C1008 C1013  1.46367       .     S
C1013 C1008  1.46367       .     S
C1009 C1010  1.33949       .     S
C1010 C1009  1.33949       .     S
C1009 H1025  0.95094       .     S
H1025 C1009  0.95094       .     S
C1010 C1011  1.49992       .     S
C1011 C1010  1.49992       .     S
C1011 H1014  0.97806       .     S
H1014 C1011  0.97806       .     S
C1011 H1015  0.97937       .     S
H1015 C1011  0.97937       .     S
C1011 H1016  0.98003       .     S
H1016 C1011  0.98003       .     S
C1012 H1017  0.97859       .     S
H1017 C1012  0.97859       .     S
C1012 H1018  0.98037       .     S
H1018 C1012  0.98037       .     S
C1012 H1019  0.98043       .     S
H1019 C1012  0.98043       .     S
C1013 H1020  0.97914   1_655     S
H1020 C1013  0.97914   1_455     S
C1013 H1021  0.97925       .     S
H1021 C1013  0.97925       .     S
C1013 H1022  0.98165       .     S
H1022 C1013  0.98165       .     S
S1026 O1027  1.45707       .     S
O1027 S1026  1.45707       .     S
S1026 O1028  1.44108   1_554     S
O1028 S1026  1.44108   1_556     S
S1026 O1029  1.44175       .     S
O1029 S1026  1.44175       .     S
S1026 C1030  1.77003       .     S
C1030 S1026  1.77003       .     S
C1030 C1031  1.35989       .     S
C1031 C1030  1.35989       .     S
C1030 C1034  1.40799       .     S
C1034 C1030  1.40799       .     S
C1031 C1032  1.42830       .     S
C1032 C1031  1.42830       .     S
C1031 H1044  0.95220   1_554     S
H1044 C1031  0.95219   1_556     S
C1032 C1033  1.43426       .     S
C1033 C1032  1.43426       .     S
C1032 C1036  1.41379   1_554     S
C1036 C1032  1.41379   1_556     S
C1033 C1035  1.41148       .     S
C1035 C1033  1.41148       .     S
C1033 C1043  1.37762       .     S
C1043 C1033  1.37762       .     S
C1034 C1035  1.37941       .     S
C1035 C1034  1.37941       .     S
C1034 H1045  0.95004       .     S
H1045 C1034  0.95004       .     S
C1035 H1046  0.94769       .     S
H1046 C1035  0.94769       .     S
C1036 C1037  1.39048   1_556     S
C1037 C1036  1.39048   1_554     S
C1036 H1047  0.94993       .     S
H1047 C1036  0.94993       .     S
C1037 C1038  1.43659   1_554     S
C1038 C1037  1.43659   1_556     S
C1037 C1042  1.42864       .     S
C1042 C1037  1.42864       .     S
C1038 C1039  1.35832       .     S
C1039 C1038  1.35832       .     S
C1038 H1048  0.95111       .     S
H1048 C1038  0.95111       .     S
C1039 C1040  1.40222   1_556     S
C1040 C1039  1.40222   1_554     S
C1039 H1049  0.95150       .     S
H1049 C1039  0.95150       .     S
C1040 C1041  1.35766       .     S
C1041 C1040  1.35766       .     S
C1040 H1050  0.95159       .     S
H1050 C1040  0.95159       .     S
C1041 C1042  1.42626       .     S
C1042 C1041  1.42626       .     S
C1041 H1051  0.94851       .     S
H1051 C1041  0.94851       .     S
C1042 C1043  1.38363       .     S
C1043 C1042  1.38363       .     S
C1043 H1052  0.95060       .     S
H1052 C1043  0.95060       .     S
O684  H117   2.07229       .     S
H117  O684   2.07229       .     S
O932  H118   1.96281       .     S
H118  O932   1.96281       .     S
O71   H154   1.95445       .     S
H154  O71    1.95445       .     S
O1027 H155   1.96251       .     S
H155  O1027  1.96251       .     S
O931  H194   2.02347       .     S
H194  O931   2.02347       .     S
O658  H231   2.07122       .     S
H231  O658   2.07122       .     S
O771  H232   2.06941       .     S
H232  O771   2.06941       .     S
O1    H318   2.22066   1_554     S
H318  O1     2.22066   1_556     S
O659  H375   2.11044       .     S
H375  O659   2.11044       .     S
O772  H377   2.15586       .     S
H377  O772   2.15586       .     S
O958  H413   2.31315       .     S
H413  O958   2.31315       .     S
O818  H479   2.26393       .     S
H479  O818   2.26393       .     S
O818  H480   2.41589   1_556     S
H480  O818   2.41589   1_554     S
O3    H617   2.17551       .     S
H617  O3     2.17551       .     S
O867  H617   2.55936       .     S
H617  O867   2.55936       .     S
O866  H618   2.20464       .     S
H618  O866   2.20464       .     S
O70   H730   1.97172       .     S
H730  O70    1.97172       .     S
O1029 H732   1.97417       .     S
H732  O1029  1.97417       .     S
O819  H912   1.93242       .     S
H912  O819   1.93242       .     S
O959  H913   2.04074       .     S
H913  O959   2.04074       .     S
O1    S0     1.44492       .     S
S0    O1     1.44492       .     S
O2    S0     1.45958       .     S
S0    O2     1.45958       .     S
O3    S0     1.45754       .     S
S0    O3     1.45754       .     S
C4    S0     1.74751       .     S
S0    C4     1.74751       .     S
C5    C4     1.35280       .     S
C4    C5     1.35280       .     S
C17   C4     1.43621       .     S
C4    C17    1.43621       .     S
C6    C5     1.43051       .     S
C5    C6     1.43051       .     S
H18   C5     0.95111       .     S
C5    H18    0.95111       .     S
C7    C6     1.39989       .     S
C6    C7     1.39989       .     S
C15   C6     1.42062       .     S
C6    C15    1.42062       .     S
C8    C7     1.43258       .     S
C7    C8     1.43258       .     S
H19   C7     0.94947       .     S
C7    H19    0.94947       .     S
C9    C8     1.40834       .     S
C8    C9     1.40834       .     S
C13   C8     1.41760       .     S
C8    C13    1.41760       .     S
C10   C9     1.36205       .     S
C9    C10    1.36205       .     S
H20   C9     0.95079       .     S
C9    H20    0.95079       .     S
C11   C10    1.42548       .     S
C10   C11    1.42548       .     S
H21   C10    0.95453       .     S
C10   H21    0.95453       .     S
C12   C11    1.35705       .     S
C11   C12    1.35705       .     S
H22   C11    0.95024       .     S
C11   H22    0.95024       .     S
C13   C12    1.41613       .     S
C12   C13    1.41613       .     S
H23   C12    0.95064       .     S
C12   H23    0.95064       .     S
C14   C13    1.39011       .     S
C13   C14    1.39011       .     S
C15   C14    1.39478       .     S
C14   C15    1.39478       .     S
H24   C14    0.94971       .     S
C14   H24    0.94971       .     S
C16   C15    1.42854       .     S
C15   C16    1.42854       .     S
C17   C16    1.36743       .     S
C16   C17    1.36743       .     S
H25   C16    0.95056       .     S
C16   H25    0.95056       .     S
H26   C17    0.94928       .     S
C17   H26    0.94928       .     S
C30   C27    1.52273       .     S
C27   C30    1.52273       .     S
H36   C27    0.98093       .     S
C27   H36    0.98093       .     S
H37   C27    0.98063       .     S
C27   H37    0.98063       .     S
H38   C27    0.98080       .     S
C27   H38    0.98080       .     S
C29   C28    1.35366       .     S
C28   C29    1.35366       .     S
C32   C28    1.53192       .     S
C28   C32    1.53192       .     S
C35   C28    1.38282       .     S
C28   C35    1.38282       .     S
C30   C29    1.37701       .     S
C29   C30    1.37701       .     S
H45   C29    0.94727       .     S
C29   H45    0.94727       .     S
C31   C30    1.39338       .     S
C30   C31    1.39338       .     S
C33   C31    1.34964       .     S
C31   C33    1.34964       .     S
H46   C31    0.94782       .     S
C31   H46    0.94782       .     S
H39   C32    0.97947       .     S
C32   H39    0.97947       .     S
H40   C32    0.98001       .     S
C32   H40    0.98001       .     S
H41   C32    0.98266       .     S
C32   H41    0.98266       .     S
C34   C33    1.53362       .     S
C33   C34    1.53362       .     S
C35   C33    1.39073       .     S
C33   C35    1.39073       .     S
H42   C34    0.97952       .     S
C34   H42    0.97952       .     S
H43   C34    0.98204       .     S
C34   H43    0.98204       .     S
H44   C34    0.98131       .     S
C34   H44    0.98131       .     S
H47   C35    0.95320       .     S
C35   H47    0.95320       .     S
C49   C48    1.38241       .     S
C48   C49    1.38241       .     S
C53   C48    1.52087       .     S
C48   C53    1.52087       .     S
C56   C48    1.37972       .     S
C48   C56    1.37972       .     S
C50   C49    1.37572       .     S
C49   C50    1.37572       .     S
H66   C49    0.95235       .     S
C49   H66    0.95235       .     S
C51   C50    1.37850       .     S
C50   C51    1.37850       .     S
C54   C50    1.51271       .     S
C50   C54    1.51271       .     S
C52   C51    1.40842       .     S
C51   C52    1.40842       .     S
H67   C51    0.94952       .     S
C51   H67    0.94952       .     S
C55   C52    1.50261       .     S
C52   C55    1.50261       .     S
C56   C52    1.35419       .     S
C52   C56    1.35419       .     S
H57   C53    0.97969       .     S
C53   H57    0.97969       .     S
H58   C53    0.98015       .     S
C53   H58    0.98015       .     S
H59   C53    0.98273       .     S
C53   H59    0.98273       .     S
H60   C54    0.97938       .     S
C54   H60    0.97938       .     S
H61   C54    0.97842       .     S
C54   H61    0.97842       .     S
H62   C54    0.98235       .     S
C54   H62    0.98235       .     S
H63   C55    0.97878       .     S
C55   H63    0.97878       .     S
H64   C55    0.97914       .     S
C55   H64    0.97914       .     S
H65   C55    0.98113       .     S
C55   H65    0.98113       .     S
H68   C56    0.94893       .     S
C56   H68    0.94893       .     S
O70   S69    1.37167   1_565     S
S69   O70    1.37167   1_545     S
O71   S69    1.45069       .     S
S69   O71    1.45069       .     S
O72   S69    1.44424       .     S
S69   O72    1.44424       .     S
C73   S69    1.75853       .     S
S69   C73    1.75853       .     S
C74   C73    1.35400       .     S
C73   C74    1.35400       .     S
C79   C73    1.41755       .     S
C73   C79    1.41755       .     S
C75   C74    1.43813       .     S
C74   C75    1.43813       .     S
H87   C74    0.94745       .     S
C74   H87    0.94745       .     S
C76   C75    1.40302       .     S
C75   C76    1.40302       .     S
C81   C75    1.40411       .     S
C75   C81    1.40411       .     S
C77   C76    1.40392       .     S
C76   C77    1.40392       .     S
C80   C76    1.43551       .     S
C76   C80    1.43551       .     S
C78   C77    1.38632       .     S
C77   C78    1.38632       .     S
H88   C77    0.95021       .     S
C77   H88    0.95021       .     S
C82   C78    1.40322       .     S
C78   C82    1.40322       .     S
C86   C78    1.41854       .     S
C78   C86    1.41854       .     S
C80   C79    1.38278       .     S
C79   C80    1.38278       .     S
H89   C79    0.94882       .     S
C79   H89    0.94882       .     S
H90   C80    0.94940       .     S
C80   H90    0.94940       .     S
C82   C81    1.41346       .     S
C81   C82    1.41346       .     S
H91   C81    0.95104       .     S
C81   H91    0.95104       .     S
C83   C82    1.43981       .     S
C82   C83    1.43981       .     S
C84   C83    1.39126       .     S
C83   C84    1.39126       .     S
H92   C83    0.95047       .     S
C83   H92    0.95047       .     S
C85   C84    1.38939       .     S
C84   C85    1.38939       .     S
H93   C84    0.94850       .     S
C84   H93    0.94850       .     S
C86   C85    1.34862       .     S
C85   C86    1.34862       .     S
H94   C85    0.95252       .     S
C85   H94    0.95252       .     S
H95   C86    0.95198       .     S
C86   H95    0.95198       .     S
C97   N96    1.49257       .     S
N96   C97    1.49257       .     S
H116  N96    0.90956       .     S
N96   H116   0.90956       .     S
H117  N96    0.90914       .     S
N96   H117   0.90914       .     S
H118  N96    0.90819       .     S
N96   H118   0.90819       .     S
C98   C97    1.54636       .     S
C97   C98    1.54636       .     S
C104  C97    1.51280       .     S
C97   C104   1.51280       .     S
C110  C97    1.53705       .     S
C97   C110   1.53705       .     S
C99   C98    1.38632       .     S
C98   C99    1.38632       .     S
C103  C98    1.38217       .     S
C98   C103   1.38217       .     S
C100  C99    1.41815       .     S
C99   C100   1.41815       .     S
H119  C99    0.95158       .     S
C99   H119   0.95158       .     S
C101  C100   1.37633       .     S
C100  C101   1.37633       .     S
H120  C100   0.95066       .     S
C100  H120   0.95066       .     S
C102  C101   1.36325       .     S
C101  C102   1.36325       .     S
H121  C101   0.94872       .     S
C101  H121   0.94872       .     S
C103  C102   1.40364       .     S
C102  C103   1.40364       .     S
H122  C102   0.94849       .     S
C102  H122   0.94849       .     S
H123  C103   0.95051       .     S
C103  H123   0.95051       .     S
C105  C104   1.38459       .     S
C104  C105   1.38459       .     S
C109  C104   1.38606       .     S
C104  C109   1.38606       .     S
C106  C105   1.40750       .     S
C105  C106   1.40750       .     S
H124  C105   0.95008       .     S
C105  H124   0.95008       .     S
C107  C106   1.37467       .     S
C106  C107   1.37467       .     S
H125  C106   0.94728       .     S
C106  H125   0.94728       .     S
C108  C107   1.38952       .     S
C107  C108   1.38952       .     S
H126  C107   0.94703       .     S
C107  H126   0.94703       .     S
C109  C108   1.37517       .     S
C108  C109   1.37517       .     S
H127  C108   0.95094       .     S
C108  H127   0.95094       .     S
H128  C109   0.95013       .     S
C109  H128   0.95013       .     S
C111  C110   1.37367       .     S
C110  C111   1.37367       .     S
C115  C110   1.40473       .     S
C110  C115   1.40473       .     S
C112  C111   1.41395       .     S
C111  C112   1.41395       .     S
H129  C111   0.94713       .     S
C111  H129   0.94713       .     S
C113  C112   1.37081       .     S
C112  C113   1.37081       .     S
H130  C112   0.95026       .     S
C112  H130   0.95026       .     S
C114  C113   1.36249       .     S
C113  C114   1.36249       .     S
H131  C113   0.94940       .     S
C113  H131   0.94940       .     S
C115  C114   1.38969       .     S
C114  C115   1.38969       .     S
H132  C114   0.95289       .     S
C114  H132   0.95289       .     S
H133  C115   0.95016       .     S
C115  H133   0.95016       .     S
C135  N134   1.51653   1_556     S
N134  C135   1.51653   1_554     S
H154  N134   0.91089       .     S
N134  H154   0.91089       .     S
H155  N134   0.91194   1_565     S
N134  H155   0.91194   1_545     S
H156  N134   0.91296   1_556     S
N134  H156   0.91296   1_554     S
C136  C135   1.52549       .     S
C135  C136   1.52549       .     S
C142  C135   1.56119   1_554     S
C135  C142   1.56119   1_556     S
C148  C135   1.54302       .     S
C135  C148   1.54302       .     S
C137  C136   1.37131       .     S
C136  C137   1.37131       .     S
C141  C136   1.41022       .     S
C136  C141   1.41022       .     S
C138  C137   1.40386       .     S
C137  C138   1.40386       .     S
H157  C137   0.94844       .     S
C137  H157   0.94844       .     S
C139  C138   1.37086       .     S
C138  C139   1.37086       .     S
H158  C138   0.95167       .     S
C138  H158   0.95167       .     S
C140  C139   1.39742       .     S
C139  C140   1.39742       .     S
H159  C139   0.95222       .     S
C139  H159   0.95222       .     S
C141  C140   1.40555       .     S
C140  C141   1.40555       .     S
H160  C140   0.94883       .     S
C140  H160   0.94883       .     S
H161  C141   0.94858   1_554     S
C141  H161   0.94858   1_556     S
C143  C142   1.37007       .     S
C142  C143   1.37007       .     S
C147  C142   1.38966       .     S
C142  C147   1.38966       .     S
C144  C143   1.41526       .     S
C143  C144   1.41526       .     S
H162  C143   0.94729       .     S
C143  H162   0.94729       .     S
C145  C144   1.36597       .     S
C144  C145   1.36597       .     S
H163  C144   0.95010       .     S
C144  H163   0.95010       .     S
C146  C145   1.37250       .     S
C145  C146   1.37250       .     S
H164  C145   0.94853       .     S
C145  H164   0.94853       .     S
C147  C146   1.41405       .     S
C146  C147   1.41405       .     S
H165  C146   0.94989   1_565     S
C146  H165   0.94989   1_545     S
H166  C147   0.95043   1_565     S
C147  H166   0.95043   1_545     S
C149  C148   1.38647       .     S
C148  C149   1.38647       .     S
C153  C148   1.39842   1_565     S
C148  C153   1.39842   1_545     S
C150  C149   1.38229       .     S
C149  C150   1.38229       .     S
H167  C149   0.95176       .     S
C149  H167   0.95176       .     S
C151  C150   1.40928   1_565     S
C150  C151   1.40928   1_545     S
H168  C150   0.95094       .     S
C150  H168   0.95094       .     S
C152  C151   1.36446       .     S
C151  C152   1.36446       .     S
H169  C151   0.94904       .     S
C151  H169   0.94904       .     S
C153  C152   1.38841       .     S
C152  C153   1.38841       .     S
H170  C152   0.95151       .     S
C152  H170   0.95151       .     S
H171  C153   0.94999       .     S
C153  H171   0.94999       .     S
C173  N172   1.50433       .     S
N172  C173   1.50433       .     S
H192  N172   0.90902       .     S
N172  H192   0.90902       .     S
H193  N172   0.90958       .     S
N172  H193   0.90958       .     S
H194  N172   0.91093       .     S
N172  H194   0.91093       .     S
C174  C173   1.51335       .     S
C173  C174   1.51335       .     S
C175  C173   1.56156       .     S
C173  C175   1.56156       .     S
C186  C173   1.52623       .     S
C173  C186   1.52623       .     S
C181  C174   1.40025       .     S
C174  C181   1.40025       .     S
C185  C174   1.38435       .     S
C174  C185   1.38435       .     S
C176  C175   1.38643       .     S
C175  C176   1.38643       .     S
C180  C175   1.40398       .     S
C175  C180   1.40398       .     S
C177  C176   1.38380       .     S
C176  C177   1.38380       .     S
H195  C176   0.94816       .     S
C176  H195   0.94816       .     S
C178  C177   1.37437       .     S
C177  C178   1.37437       .     S
H196  C177   0.94883       .     S
C177  H196   0.94883       .     S
C179  C178   1.38510       .     S
C178  C179   1.38510       .     S
H197  C178   0.94896       .     S
C178  H197   0.94896       .     S
C180  C179   1.37463       .     S
C179  C180   1.37463       .     S
H198  C179   0.94821       .     S
C179  H198   0.94821       .     S
H199  C180   0.94862       .     S
C180  H199   0.94862       .     S
C182  C181   1.38646       .     S
C181  C182   1.38646       .     S
H200  C181   0.94873       .     S
C181  H200   0.94873       .     S
C183  C182   1.38244       .     S
C182  C183   1.38244       .     S
H201  C182   0.94825       .     S
C182  H201   0.94825       .     S
C184  C183   1.35819       .     S
C183  C184   1.35819       .     S
H202  C183   0.95043       .     S
C183  H202   0.95043       .     S
C185  C184   1.40545       .     S
C184  C185   1.40545       .     S
H203  C184   0.94920       .     S
C184  H203   0.94920       .     S
H204  C185   0.94626       .     S
C185  H204   0.94626       .     S
C187  C186   1.39858       .     S
C186  C187   1.39858       .     S
C191  C186   1.39431       .     S
C186  C191   1.39431       .     S
C188  C187   1.39146       .     S
C187  C188   1.39146       .     S
H205  C187   0.95272       .     S
C187  H205   0.95272       .     S
C189  C188   1.38673       .     S
C188  C189   1.38673       .     S
H206  C188   0.94924       .     S
C188  H206   0.94924       .     S
C190  C189   1.37133       .     S
C189  C190   1.37133       .     S
H207  C189   0.94874       .     S
C189  H207   0.94874       .     S
C191  C190   1.36972       .     S
C190  C191   1.36972       .     S
H208  C190   0.95198       .     S
C190  H208   0.95198       .     S
H209  C191   0.94874       .     S
C191  H209   0.94874       .     S
C212  N210   1.52252       .     S
N210  C212   1.52252       .     S
H230  N210   0.90884       .     S
N210  H230   0.90884       .     S
H231  N210   0.90721       .     S
N210  H231   0.90721       .     S
H232  N210   0.90997       .     S
N210  H232   0.90997       .     S
C213  C211   1.39940       .     S
C211  C213   1.39940       .     S
C219  C211   1.37051       .     S
C211  C219   1.37051       .     S
H233  C211   0.94935       .     S
C211  H233   0.94935       .     S
C213  C212   1.52423       .     S
C212  C213   1.52423       .     S
C214  C212   1.52893       .     S
C212  C214   1.52893       .     S
C217  C212   1.55156       .     S
C212  C217   1.55156       .     S
C222  C213   1.38649       .     S
C213  C222   1.38649       .     S
C215  C214   1.39696       .     S
C214  C215   1.39696       .     S
C216  C214   1.38480       .     S
C214  C216   1.38480       .     S
C223  C215   1.37909       .     S
C215  C223   1.37909       .     S
H234  C215   0.94819       .     S
C215  H234   0.94819       .     S
C225  C216   1.38645       .     S
C216  C225   1.38645       .     S
H235  C216   0.95162       .     S
C216  H235   0.95162       .     S
C218  C217   1.37797       .     S
C217  C218   1.37797       .     S
C226  C217   1.39097       .     S
C217  C226   1.39097       .     S
C229  C218   1.38773       .     S
C218  C229   1.38773       .     S
H236  C218   0.94842       .     S
C218  H236   0.94842       .     S
C220  C219   1.37203       .     S
C219  C220   1.37203       .     S
H237  C219   0.94828       .     S
C219  H237   0.94828       .     S
C221  C220   1.36328       .     S
C220  C221   1.36328       .     S
H238  C220   0.94745       .     S
C220  H238   0.94745       .     S
C222  C221   1.40513       .     S
C221  C222   1.40513       .     S
H239  C221   0.94888       .     S
C221  H239   0.94888       .     S
H240  C222   0.94962       .     S
C222  H240   0.94962       .     S
C224  C223   1.38353       .     S
C223  C224   1.38353       .     S
H241  C223   0.94765       .     S
C223  H241   0.94765       .     S
C225  C224   1.38824       .     S
C224  C225   1.38824       .     S
H242  C224   0.94943       .     S
C224  H242   0.94943       .     S
H243  C225   0.94932       .     S
C225  H243   0.94932       .     S
C227  C226   1.39189       .     S
C226  C227   1.39189       .     S
H244  C226   0.94936       .     S
C226  H244   0.94936       .     S
C228  C227   1.37366       .     S
C227  C228   1.37366       .     S
H245  C227   0.95084       .     S
C227  H245   0.95084       .     S
C229  C228   1.39602       .     S
C228  C229   1.39602       .     S
H246  C228   0.95003       .     S
C228  H246   0.95003       .     S
H247  C229   0.95164       .     S
C229  H247   0.95164       .     S
C249  C248   1.43475       .     S
C248  C249   1.43475       .     S
C253  C248   1.37016   1_455     S
C248  C253   1.37016   1_655     S
H266  C248   0.95224       .     S
C248  H266   0.95224       .     S
C250  C249   1.40291       .     S
C249  C250   1.40291       .     S
C256  C249   1.53086       .     S
C249  C256   1.53086       .     S
C251  C250   1.36561   1_455     S
C250  C251   1.36561   1_655     S
H267  C250   0.95103       .     S
C250  H267   0.95103       .     S
C252  C251   1.38901       .     S
C251  C252   1.38901       .     S
C254  C251   1.50059       .     S
C251  C254   1.50059       .     S
C253  C252   1.39863       .     S
C252  C253   1.39863       .     S
H268  C252   0.95003       .     S
C252  H268   0.95003       .     S
C255  C253   1.48852       .     S
C253  C255   1.48852       .     S
H257  C254   0.98076       .     S
C254  H257   0.98076       .     S
H258  C254   0.97853       .     S
C254  H258   0.97853       .     S
H259  C254   0.98043       .     S
C254  H259   0.98043       .     S
H260  C255   0.98023       .     S
C255  H260   0.98023       .     S
H261  C255   0.97948       .     S
C255  H261   0.97948       .     S
H262  C255   0.97862       .     S
C255  H262   0.97862       .     S
H263  C256   0.97892       .     S
C256  H263   0.97892       .     S
H264  C256   0.98099       .     S
C256  H264   0.98099       .     S
H265  C256   0.98006       .     S
C256  H265   0.98006       .     S
O270  S269   1.45673       .     S
S269  O270   1.45673       .     S
O271  S269   1.44085       .     S
S269  O271   1.44085       .     S
O272  S269   1.45808       .     S
S269  O272   1.45808       .     S
C273  S269   1.75366       .     S
S269  C273   1.75366       .     S
C274  C273   1.36955       .     S
C273  C274   1.36955       .     S
C276  C273   1.41362       .     S
C273  C276   1.41362       .     S
C275  C274   1.43518       .     S
C274  C275   1.43518       .     S
H287  C274   0.94869       .     S
C274  H287   0.94869       .     S
C277  C275   1.42261       .     S
C275  C277   1.42261       .     S
C285  C275   1.40636       .     S
C275  C285   1.40636       .     S
C286  C276   1.38093       .     S
C276  C286   1.38093       .     S
H288  C276   0.94996       .     S
C276  H288   0.94996       .     S
C278  C277   1.40723       .     S
C277  C278   1.40723       .     S
C286  C277   1.41389       .     S
C277  C286   1.41389       .     S
C279  C278   1.39214       .     S
C278  C279   1.39214       .     S
H289  C278   0.94708       .     S
C278  H289   0.94708       .     S
C280  C279   1.43538       .     S
C279  C280   1.43538       .     S
C284  C279   1.39486       .     S
C279  C284   1.39486       .     S
C281  C280   1.36157       .     S
C280  C281   1.36157       .     S
H290  C280   0.95085       .     S
C280  H290   0.95085       .     S
C282  C281   1.41750       .     S
C281  C282   1.41750       .     S
H291  C281   0.94987       .     S
C281  H291   0.94987       .     S
C283  C282   1.36614       .     S
C282  C283   1.36614       .     S
H292  C282   0.94894       .     S
C282  H292   0.94894       .     S
C284  C283   1.44181       .     S
C283  C284   1.44181       .     S
H293  C283   0.95372       .     S
C283  H293   0.95372       .     S
C285  C284   1.41061       .     S
C284  C285   1.41061       .     S
H294  C285   0.94959       .     S
C285  H294   0.94959       .     S
H295  C286   0.95084       .     S
C286  H295   0.95084       .     S
C297  N296   1.51902       .     S
N296  C297   1.51902       .     S
H316  N296   0.91109       .     S
N296  H316   0.91109       .     S
H317  N296   0.90815   1_554     S
N296  H317   0.90815   1_556     S
H318  N296   0.90829       .     S
N296  H318   0.90829       .     S
C298  C297   1.53577       .     S
C297  C298   1.53577       .     S
C304  C297   1.52830       .     S
C297  C304   1.52830       .     S
C310  C297   1.52495   1_554     S
C297  C310   1.52495   1_556     S
C299  C298   1.38039       .     S
C298  C299   1.38039       .     S
C303  C298   1.39532       .     S
C298  C303   1.39532       .     S
C300  C299   1.38171       .     S
C299  C300   1.38171       .     S
H319  C299   0.94999       .     S
C299  H319   0.94999       .     S
C301  C300   1.38939       .     S
C300  C301   1.38939       .     S
H320  C300   0.94945       .     S
C300  H320   0.94945       .     S
C302  C301   1.38949       .     S
C301  C302   1.38949       .     S
H321  C301   0.95036       .     S
C301  H321   0.95036       .     S
C303  C302   1.37940       .     S
C302  C303   1.37940       .     S
H322  C302   0.94999       .     S
C302  H322   0.94999       .     S
H323  C303   0.94860   1_554     S
C303  H323   0.94860   1_556     S
C305  C304   1.40118       .     S
C304  C305   1.40118       .     S
C309  C304   1.40454       .     S
C304  C309   1.40454       .     S
C306  C305   1.37005       .     S
C305  C306   1.37005       .     S
H324  C305   0.95084       .     S
C305  H324   0.95084       .     S
C307  C306   1.38988       .     S
C306  C307   1.38988       .     S
H325  C306   0.94898       .     S
C306  H325   0.94898       .     S
C308  C307   1.37951       .     S
C307  C308   1.37951       .     S
H326  C307   0.95183       .     S
C307  H326   0.95183       .     S
C309  C308   1.40377       .     S
C308  C309   1.40377       .     S
H327  C308   0.95229   1_655     S
C308  H327   0.95229   1_455     S
H328  C309   0.94969       .     S
C309  H328   0.94969       .     S
C311  C310   1.38240       .     S
C310  C311   1.38240       .     S
C315  C310   1.40626       .     S
C310  C315   1.40626       .     S
C312  C311   1.42737       .     S
C311  C312   1.42737       .     S
H329  C311   0.95100       .     S
C311  H329   0.95100       .     S
C313  C312   1.35352       .     S
C312  C313   1.35352       .     S
H330  C312   0.95132       .     S
C312  H330   0.95132       .     S
C314  C313   1.37945       .     S
C313  C314   1.37945       .     S
H331  C313   0.94944       .     S
C313  H331   0.94944       .     S
C315  C314   1.36727       .     S
C314  C315   1.36727       .     S
H332  C314   0.94784       .     S
C314  H332   0.94784       .     S
H333  C315   0.95135       .     S
C315  H333   0.95135       .     S
C335  C334   1.40701   1_655     S
C334  C335   1.40701   1_455     S
C339  C334   1.32741       .     S
C334  C339   1.32741       .     S
C342  C334   1.56168       .     S
C334  C342   1.56168       .     S
C336  C335   1.40325       .     S
C335  C336   1.40325       .     S
H352  C335   0.94923       .     S
C335  H352   0.94923       .     S
C337  C336   1.38820   1_455     S
C336  C337   1.38820   1_655     S
C340  C336   1.51462       .     S
C336  C340   1.51462       .     S
C338  C337   1.35880       .     S
C337  C338   1.35880       .     S
H353  C337   0.94845   1_655     S
C337  H353   0.94845   1_455     S
C339  C338   1.39525       .     S
C338  C339   1.39525       .     S
C341  C338   1.51857       .     S
C338  C341   1.51857       .     S
H354  C339   0.94793       .     S
C339  H354   0.94793       .     S
H343  C340   0.97910       .     S
C340  H343   0.97910       .     S
H344  C340   0.97915       .     S
C340  H344   0.97915       .     S
H345  C340   0.98280       .     S
C340  H345   0.98280       .     S
H346  C341   0.98174       .     S
C341  H346   0.98174       .     S
H347  C341   0.98021       .     S
C341  H347   0.98021       .     S
H348  C341   0.98076       .     S
C341  H348   0.98076       .     S
H349  C342   0.97821       .     S
C342  H349   0.97821       .     S
H350  C342   0.98121       .     S
C342  H350   0.98121       .     S
H351  C342   0.97998       .     S
C342  H351   0.97998       .     S
C356  N355   1.52742       .     S
N355  C356   1.52742       .     S
H375  N355   0.90803       .     S
N355  H375   0.90803       .     S
H376  N355   0.91097       .     S
N355  H376   0.91097       .     S
H377  N355   0.90980       .     S
N355  H377   0.90980       .     S
C357  C356   1.53888       .     S
C356  C357   1.53888       .     S
C363  C356   1.52286       .     S
C356  C363   1.52286       .     S
C369  C356   1.50919       .     S
C356  C369   1.50919       .     S
C358  C357   1.37214       .     S
C357  C358   1.37214       .     S
C362  C357   1.38863       .     S
C357  C362   1.38863       .     S
C359  C358   1.40225       .     S
C358  C359   1.40225       .     S
H378  C358   0.95267       .     S
C358  H378   0.95267       .     S
C360  C359   1.36880       .     S
C359  C360   1.36880       .     S
H379  C359   0.94671       .     S
C359  H379   0.94671       .     S
C361  C360   1.38130       .     S
C360  C361   1.38130       .     S
H380  C360   0.94980       .     S
C360  H380   0.94980       .     S
C362  C361   1.41640       .     S
C361  C362   1.41640       .     S
H381  C361   0.95131       .     S
C361  H381   0.95131       .     S
H382  C362   0.95286       .     S
C362  H382   0.95286       .     S
C364  C363   1.40801       .     S
C363  C364   1.40801       .     S
C368  C363   1.40438       .     S
C363  C368   1.40438       .     S
C365  C364   1.38958       .     S
C364  C365   1.38958       .     S
H383  C364   0.94866       .     S
C364  H383   0.94866       .     S
C366  C365   1.39323       .     S
C365  C366   1.39323       .     S
H384  C365   0.94954   1_655     S
C365  H384   0.94954   1_455     S
C367  C366   1.36412       .     S
C366  C367   1.36412       .     S
H385  C366   0.95060       .     S
C366  H385   0.95060       .     S
C368  C367   1.38904       .     S
C367  C368   1.38904       .     S
H386  C367   0.94964       .     S
C367  H386   0.94964       .     S
H387  C368   0.95026       .     S
C368  H387   0.95026       .     S
C370  C369   1.39204       .     S
C369  C370   1.39204       .     S
C374  C369   1.38010       .     S
C369  C374   1.38010       .     S
C371  C370   1.38469       .     S
C370  C371   1.38469       .     S
H388  C370   0.95014       .     S
C370  H388   0.95014       .     S
C372  C371   1.39521       .     S
C371  C372   1.39521       .     S
H389  C371   0.95059       .     S
C371  H389   0.95059       .     S
C373  C372   1.36390       .     S
C372  C373   1.36390       .     S
H390  C372   0.95011       .     S
C372  H390   0.95011       .     S
C374  C373   1.42465       .     S
C373  C374   1.42465       .     S
H391  C373   0.95072       .     S
C373  H391   0.95072       .     S
H392  C374   0.95030       .     S
C374  H392   0.95030       .     S
C394  N393   1.52065       .     S
N393  C394   1.52065       .     S
H413  N393   0.90894       .     S
N393  H413   0.90894       .     S
H414  N393   0.91164   1_556     S
N393  H414   0.91164   1_554     S
H415  N393   0.90961       .     S
N393  H415   0.90961       .     S
C395  C394   1.54771       .     S
C394  C395   1.54771       .     S
C398  C394   1.51432   1_556     S
C394  C398   1.51432   1_554     S
C403  C394   1.54087       .     S
C394  C403   1.54087       .     S
C410  C395   1.38914       .     S
C395  C410   1.38914       .     S
C412  C395   1.37910       .     S
C395  C412   1.37910       .     S
C397  C396   1.38177       .     S
C396  C397   1.38177       .     S
C412  C396   1.37749       .     S
C396  C412   1.37749       .     S
H416  C396   0.95088       .     S
C396  H416   0.95088       .     S
C409  C397   1.38370       .     S
C397  C409   1.38370       .     S
H417  C397   0.94942       .     S
C397  H417   0.94942       .     S
C399  C398   1.40902       .     S
C398  C399   1.40902       .     S
C402  C398   1.39195       .     S
C398  C402   1.39195       .     S
C400  C399   1.37972       .     S
C399  C400   1.37972       .     S
H418  C399   0.95043       .     S
C399  H418   0.95043       .     S
C401  C400   1.36133       .     S
C400  C401   1.36133       .     S
H419  C400   0.94744       .     S
C400  H419   0.94744       .     S
C411  C401   1.37749       .     S
C401  C411   1.37749       .     S
H420  C401   0.95100       .     S
C401  H420   0.95100       .     S
C411  C402   1.39580       .     S
C402  C411   1.39580       .     S
H421  C402   0.94968       .     S
C402  H421   0.94968       .     S
C404  C403   1.39319       .     S
C403  C404   1.39319       .     S
C408  C403   1.38071       .     S
C403  C408   1.38071       .     S
C405  C404   1.38407       .     S
C404  C405   1.38407       .     S
H422  C404   0.94905       .     S
C404  H422   0.94905       .     S
C406  C405   1.36886       .     S
C405  C406   1.36886       .     S
H423  C405   0.95116       .     S
C405  H423   0.95116       .     S
C407  C406   1.35868       .     S
C406  C407   1.35868       .     S
H424  C406   0.94692       .     S
C406  H424   0.94692       .     S
C408  C407   1.39385       .     S
C407  C408   1.39385       .     S
H425  C407   0.95031       .     S
C407  H425   0.95031       .     S
H426  C408   0.94953   1_556     S
C408  H426   0.94953   1_554     S
C410  C409   1.37817       .     S
C409  C410   1.37817       .     S
H427  C409   0.95011       .     S
C409  H427   0.95011       .     S
H428  C410   0.95026       .     S
C410  H428   0.95026       .     S
H429  C411   0.94824       .     S
C411  H429   0.94824       .     S
H430  C412   0.95202       .     S
C412  H430   0.95202       .     S
O432  S431   1.45239       .     S
S431  O432   1.45239       .     S
O433  S431   1.45668       .     S
S431  O433   1.45668       .     S
O434  S431   1.46092       .     S
S431  O434   1.46092       .     S
C435  S431   1.74667       .     S
S431  C435   1.74667       .     S
C436  C435   1.37158       .     S
C435  C436   1.37158       .     S
C439  C435   1.42926       .     S
C435  C439   1.42926       .     S
C438  C436   1.43119       .     S
C436  C438   1.43119       .     S
H449  C436   0.95193       .     S
C436  H449   0.95193       .     S
C440  C437   1.42777       .     S
C437  C440   1.42777       .     S
C441  C437   1.39109       .     S
C437  C441   1.39109       .     S
H450  C437   0.94874       .     S
C437  H450   0.94874       .     S
C440  C438   1.41804       .     S
C438  C440   1.41804       .     S
C447  C438   1.39461       .     S
C438  C447   1.39461       .     S
C448  C439   1.35986       .     S
C439  C448   1.35986       .     S
H451  C439   0.94988       .     S
C439  H451   0.94988       .     S
C448  C440   1.42048       .     S
C440  C448   1.42048       .     S
C442  C441   1.43571       .     S
C441  C442   1.43571       .     S
C446  C441   1.41347       .     S
C441  C446   1.41347       .     S
C443  C442   1.35315       .     S
C442  C443   1.35315       .     S
H452  C442   0.94915       .     S
C442  H452   0.94915       .     S
C444  C443   1.40847       .     S
C443  C444   1.40847       .     S
H453  C443   0.95206       .     S
C443  H453   0.95206       .     S
C445  C444   1.37198       .     S
C444  C445   1.37198       .     S
H454  C444   0.95034       .     S
C444  H454   0.95034       .     S
C446  C445   1.41919       .     S
C445  C446   1.41919       .     S
H455  C445   0.94880       .     S
C445  H455   0.94880       .     S
C447  C446   1.42479       .     S
C446  C447   1.42479       .     S
H456  C447   0.94912       .     S
C447  H456   0.94912       .     S
H457  C448   0.94876       .     S
C448  H457   0.94876       .     S
C459  N458   1.52604       .     S
N458  C459   1.52604       .     S
H478  N458   0.91097       .     S
N458  H478   0.91097       .     S
H479  N458   0.91086       .     S
N458  H479   0.91086       .     S
H480  N458   0.90994   1_554     S
N458  H480   0.90994   1_556     S
C460  C459   1.51696   1_554     S
C459  C460   1.51696   1_556     S
C465  C459   1.54039       .     S
C459  C465   1.54039       .     S
C470  C459   1.52319       .     S
C459  C470   1.52319       .     S
C461  C460   1.41166       .     S
C460  C461   1.41166       .     S
C464  C460   1.38222       .     S
C460  C464   1.38222       .     S
C462  C461   1.38910       .     S
C461  C462   1.38910       .     S
H481  C461   0.95053       .     S
C461  H481   0.95053       .     S
C463  C462   1.38903       .     S
C462  C463   1.38903       .     S
H482  C462   0.95024       .     S
C462  H482   0.95024       .     S
C477  C463   1.38361       .     S
C463  C477   1.38361       .     S
H483  C463   0.95072       .     S
C463  H483   0.95072       .     S
C477  C464   1.41205       .     S
C464  C477   1.41205       .     S
H484  C464   0.95128       .     S
C464  H484   0.95128       .     S
C466  C465   1.38486       .     S
C465  C466   1.38486       .     S
C469  C465   1.39365       .     S
C465  C469   1.39365       .     S
C467  C466   1.38017       .     S
C466  C467   1.38017       .     S
H485  C466   0.94932       .     S
C466  H485   0.94932       .     S
C468  C467   1.39903       .     S
C467  C468   1.39903       .     S
H486  C467   0.94888       .     S
C467  H486   0.94888       .     S
C476  C468   1.38912       .     S
C468  C476   1.38912       .     S
H487  C468   0.95066       .     S
C468  H487   0.95066       .     S
C476  C469   1.38871       .     S
C469  C476   1.38871       .     S
H488  C469   0.95016       .     S
C469  H488   0.95016       .     S
C471  C470   1.38858       .     S
C470  C471   1.38858       .     S
C475  C470   1.38897       .     S
C470  C475   1.38897       .     S
C472  C471   1.40993       .     S
C471  C472   1.40993       .     S
H489  C471   0.95021       .     S
C471  H489   0.95021       .     S
C473  C472   1.36636       .     S
C472  C473   1.36636       .     S
H490  C472   0.95267   1_655     S
C472  H490   0.95267   1_455     S
C474  C473   1.35630       .     S
C473  C474   1.35630       .     S
H491  C473   0.95072       .     S
C473  H491   0.95072       .     S
C475  C474   1.40257       .     S
C474  C475   1.40257       .     S
H492  C474   0.94926       .     S
C474  H492   0.94926       .     S
H493  C475   0.94938       .     S
C475  H493   0.94938       .     S
H494  C476   0.94869       .     S
C476  H494   0.94869       .     S
H495  C477   0.95144       .     S
C477  H495   0.95144       .     S
C497  C496   1.36874       .     S
C496  C497   1.36874       .     S
C501  C496   1.34955       .     S
C496  C501   1.34955       .     S
C502  C496   1.53546       .     S
C496  C502   1.53546       .     S
C498  C497   1.40711       .     S
C497  C498   1.40711       .     S
H514  C497   0.95086       .     S
C497  H514   0.95086       .     S
C499  C498   1.35824       .     S
C498  C499   1.35824       .     S
C503  C498   1.51386       .     S
C498  C503   1.51386       .     S
C500  C499   1.37297       .     S
C499  C500   1.37297       .     S
H515  C499   0.94855       .     S
C499  H515   0.94855       .     S
C501  C500   1.40559       .     S
C500  C501   1.40559       .     S
C504  C500   1.52595       .     S
C500  C504   1.52595       .     S
H516  C501   0.94933       .     S
C501  H516   0.94933       .     S
H505  C502   0.98191       .     S
C502  H505   0.98191       .     S
H506  C502   0.97858       .     S
C502  H506   0.97858       .     S
H507  C502   0.97736       .     S
C502  H507   0.97736       .     S
H508  C503   0.98339       .     S
C503  H508   0.98339       .     S
H509  C503   0.98040       .     S
C503  H509   0.98040       .     S
H510  C503   0.97903       .     S
C503  H510   0.97903       .     S
H511  C504   0.97995       .     S
C504  H511   0.97995       .     S
H512  C504   0.98065       .     S
C504  H512   0.98065       .     S
H513  C504   0.97676       .     S
C504  H513   0.97676       .     S
C518  C517   1.40095       .     S
C517  C518   1.40095       .     S
C522  C517   1.40786       .     S
C517  C522   1.40786       .     S
C523  C517   1.49572       .     S
C517  C523   1.49572       .     S
C519  C518   1.38094       .     S
C518  C519   1.38094       .     S
H535  C518   0.94805       .     S
C518  H535   0.94805       .     S
C520  C519   1.38909       .     S
C519  C520   1.38909       .     S
C524  C519   1.52196       .     S
C519  C524   1.52196       .     S
C521  C520   1.38628       .     S
C520  C521   1.38628       .     S
H536  C520   0.95009       .     S
C520  H536   0.95009       .     S
C522  C521   1.38161       .     S
C521  C522   1.38161       .     S
C525  C521   1.52483       .     S
C521  C525   1.52483       .     S
H537  C522   0.94909       .     S
C522  H537   0.94909       .     S
H526  C523   0.97969       .     S
C523  H526   0.97969       .     S
H527  C523   0.98064       .     S
C523  H527   0.98064       .     S
H528  C523   0.98290       .     S
C523  H528   0.98290       .     S
H529  C524   0.97795       .     S
C524  H529   0.97795       .     S
H530  C524   0.98143       .     S
C524  H530   0.98143       .     S
H531  C524   0.98108       .     S
C524  H531   0.98108       .     S
H532  C525   0.97839       .     S
C525  H532   0.97839       .     S
H533  C525   0.98082       .     S
C525  H533   0.98082       .     S
H534  C525   0.97783       .     S
C525  H534   0.97783       .     S
C539  C538   1.35605       .     S
C538  C539   1.35605       .     S
C543  C538   1.40683       .     S
C538  C543   1.40683       .     S
C544  C538   1.51426       .     S
C538  C544   1.51426       .     S
C540  C539   1.38050       .     S
C539  C540   1.38050       .     S
H556  C539   0.94985       .     S
C539  H556   0.94985       .     S
C541  C540   1.37558       .     S
C540  C541   1.37558       .     S
C545  C540   1.53217       .     S
C540  C545   1.53217       .     S
C542  C541   1.36754       .     S
C541  C542   1.36754       .     S
H557  C541   0.95180       .     S
C541  H557   0.95180       .     S
C543  C542   1.37819       .     S
C542  C543   1.37819       .     S
C546  C542   1.51970   1_655     S
C542  C546   1.51970   1_455     S
H558  C543   0.95216       .     S
C543  H558   0.95216       .     S
H547  C544   0.97981       .     S
C544  H547   0.97981       .     S
H548  C544   0.98021       .     S
C544  H548   0.98021       .     S
H549  C544   0.97960       .     S
C544  H549   0.97960       .     S
H550  C545   0.97907       .     S
C545  H550   0.97907       .     S
H551  C545   0.98154       .     S
C545  H551   0.98154       .     S
H552  C545   0.97826       .     S
C545  H552   0.97826       .     S
H553  C546   0.98237       .     S
C546  H553   0.98237       .     S
H554  C546   0.97805   1_455     S
C546  H554   0.97805   1_655     S
H555  C546   0.97974       .     S
C546  H555   0.97974       .     S
C560  N559   1.52623       .     S
N559  C560   1.52623       .     S
H579  N559   0.91068       .     S
N559  H579   0.91068       .     S
H580  N559   0.91015       .     S
N559  H580   0.91015       .     S
H581  N559   0.90803       .     S
N559  H581   0.90803       .     S
C561  C560   1.52738       .     S
C560  C561   1.52738       .     S
C566  C560   1.53866       .     S
C560  C566   1.53866       .     S
C573  C560   1.54282       .     S
C560  C573   1.54282       .     S
C562  C561   1.36926       .     S
C561  C562   1.36926       .     S
C563  C561   1.41364       .     S
C561  C563   1.41364       .     S
C570  C562   1.39149   1_545     S
C562  C570   1.39149   1_565     S
H582  C562   0.94968       .     S
C562  H582   0.94968       .     S
C564  C563   1.37064   1_545     S
C563  C564   1.37064   1_565     S
H583  C563   0.95279       .     S
C563  H583   0.95279       .     S
C565  C564   1.38499       .     S
C564  C565   1.38499       .     S
H584  C564   0.95153       .     S
C564  H584   0.95153       .     S
C570  C565   1.37840       .     S
C565  C570   1.37840       .     S
H585  C565   0.94760       .     S
C565  H585   0.94760       .     S
C568  C566   1.37079       .     S
C566  C568   1.37079       .     S
C569  C566   1.38675       .     S
C566  C569   1.38675       .     S
C569  C567   1.39869       .     S
C567  C569   1.39869       .     S
C571  C567   1.36765       .     S
C567  C571   1.36765       .     S
H586  C567   0.95185       .     S
C567  H586   0.95185       .     S
C572  C568   1.38434       .     S
C568  C572   1.38434       .     S
H587  C568   0.95073       .     S
C568  H587   0.95073       .     S
H588  C569   0.94894       .     S
C569  H588   0.94894       .     S
H589  C570   0.95167       .     S
C570  H589   0.95167       .     S
C572  C571   1.38488       .     S
C571  C572   1.38488       .     S
H590  C571   0.95033       .     S
C571  H590   0.95033       .     S
H591  C572   0.94906       .     S
C572  H591   0.94906       .     S
C574  C573   1.38024       .     S
C573  C574   1.38024       .     S
C578  C573   1.39114       .     S
C573  C578   1.39114       .     S
C575  C574   1.41166       .     S
C574  C575   1.41166       .     S
H592  C574   0.95173       .     S
C574  H592   0.95173       .     S
C576  C575   1.36903       .     S
C575  C576   1.36903       .     S
H593  C575   0.95153       .     S
C575  H593   0.95153       .     S
C577  C576   1.37793       .     S
C576  C577   1.37793       .     S
H594  C576   0.95085       .     S
C576  H594   0.95085       .     S
C578  C577   1.38758       .     S
C577  C578   1.38758       .     S
H595  C577   0.95043       .     S
C577  H595   0.95043       .     S
H596  C578   0.95152       .     S
C578  H596   0.95152       .     S
C598  N597   1.53796       .     S
N597  C598   1.53796       .     S
H617  N597   0.91118       .     S
N597  H617   0.91118       .     S
H618  N597   0.91012   1_556     S
N597  H618   0.91012   1_554     S
H619  N597   0.90896       .     S
N597  H619   0.90896       .     S
C599  C598   1.52495       .     S
C598  C599   1.52495       .     S
C605  C598   1.52616   1_556     S
C598  C605   1.52616   1_554     S
C611  C598   1.52374       .     S
C598  C611   1.52374       .     S
C600  C599   1.38763       .     S
C599  C600   1.38763       .     S
C604  C599   1.38729       .     S
C599  C604   1.38729       .     S
C601  C600   1.40061       .     S
C600  C601   1.40061       .     S
H620  C600   0.95066       .     S
C600  H620   0.95066       .     S
C602  C601   1.39393       .     S
C601  C602   1.39393       .     S
H621  C601   0.94782       .     S
C601  H621   0.94782       .     S
C603  C602   1.36571       .     S
C602  C603   1.36571       .     S
H622  C602   0.94903       .     S
C602  H622   0.94903       .     S
C604  C603   1.39469       .     S
C603  C604   1.39469       .     S
H623  C603   0.94913       .     S
C603  H623   0.94913       .     S
H624  C604   0.94988       .     S
C604  H624   0.94988       .     S
C606  C605   1.37222       .     S
C605  C606   1.37222       .     S
C610  C605   1.40421       .     S
C605  C610   1.40421       .     S
C607  C606   1.37906       .     S
C606  C607   1.37906       .     S
H625  C606   0.95092       .     S
C606  H625   0.95092       .     S
C608  C607   1.38943       .     S
C607  C608   1.38943       .     S
H626  C607   0.94857       .     S
C607  H626   0.94857       .     S
C609  C608   1.35074       .     S
C608  C609   1.35074       .     S
H627  C608   0.95161       .     S
C608  H627   0.95161       .     S
C610  C609   1.37863       .     S
C609  C610   1.37863       .     S
H628  C609   0.94794       .     S
C609  H628   0.94794       .     S
H629  C610   0.95240       .     S
C610  H629   0.95240       .     S
C612  C611   1.38127       .     S
C611  C612   1.38127       .     S
C616  C611   1.38913       .     S
C611  C616   1.38913       .     S
C613  C612   1.40253       .     S
C612  C613   1.40253       .     S
H630  C612   0.95166       .     S
C612  H630   0.95166       .     S
C614  C613   1.38743       .     S
C613  C614   1.38743       .     S
H631  C613   0.94751       .     S
C613  H631   0.94751       .     S
C615  C614   1.36352       .     S
C614  C615   1.36352       .     S
H632  C614   0.95119       .     S
C614  H632   0.95119       .     S
C616  C615   1.39906       .     S
C615  C616   1.39906       .     S
H633  C615   0.94763       .     S
C615  H633   0.94763       .     S
H634  C616   0.95280       .     S
C616  H634   0.95280       .     S
C636  C635   1.39788       .     S
C635  C636   1.39788       .     S
C640  C635   1.39113       .     S
C635  C640   1.39113       .     S
C641  C635   1.54450       .     S
C635  C641   1.54450       .     S
C637  C636   1.38819       .     S
C636  C637   1.38819       .     S
H653  C636   0.95163       .     S
C636  H653   0.95163       .     S
C638  C637   1.38356       .     S
C637  C638   1.38356       .     S
C642  C637   1.52852       .     S
C637  C642   1.52852       .     S
C639  C638   1.38296       .     S
C638  C639   1.38296       .     S
H654  C638   0.94856       .     S
C638  H654   0.94856       .     S
C640  C639   1.36897       .     S
C639  C640   1.36897       .     S
C643  C639   1.50444   1_565     S
C639  C643   1.50444   1_545     S
H655  C640   0.95024       .     S
C640  H655   0.95024       .     S
H644  C641   0.97874       .     S
C641  H644   0.97874       .     S
H645  C641   0.98238       .     S
C641  H645   0.98238       .     S
H646  C641   0.97999       .     S
C641  H646   0.97999       .     S
H647  C642   0.98016       .     S
C642  H647   0.98016       .     S
H648  C642   0.98172       .     S
C642  H648   0.98172       .     S
H649  C642   0.98058       .     S
C642  H649   0.98058       .     S
H650  C643   0.98265       .     S
C643  H650   0.98265       .     S
H651  C643   0.98201       .     S
C643  H651   0.98201       .     S
H652  C643   0.98238       .     S
C643  H652   0.98238       .     S
O657  S656   1.46692       .     S
S656  O657   1.46692       .     S
O658  S656   1.46263       .     S
S656  O658   1.46263       .     S
O659  S656   1.46083       .     S
S656  O659   1.46083       .     S
C660  S656   1.73660       .     S
S656  C660   1.73660       .     S
C661  C660   1.35390       .     S
C660  C661   1.35390       .     S
C673  C660   1.41813       .     S
C660  C673   1.41813       .     S
C662  C661   1.44693       .     S
C661  C662   1.44693       .     S
H674  C661   0.95053       .     S
C661  H674   0.95053       .     S
C663  C662   1.40710       .     S
C662  C663   1.40710       .     S
C671  C662   1.40971       .     S
C662  C671   1.40971       .     S
C664  C663   1.40358       .     S
C663  C664   1.40358       .     S
H675  C663   0.95059       .     S
C663  H675   0.95059       .     S
C665  C664   1.44486       .     S
C664  C665   1.44486       .     S
C669  C664   1.38044       .     S
C664  C669   1.38044       .     S
C666  C665   1.39775       .     S
C665  C666   1.39775       .     S
H676  C665   0.95241       .     S
C665  H676   0.95241       .     S
C667  C666   1.35739       .     S
C666  C667   1.35739       .     S
H677  C666   0.94861       .     S
C666  H677   0.94861       .     S
C668  C667   1.37842       .     S
C667  C668   1.37842       .     S
H678  C667   0.95019       .     S
C667  H678   0.95019       .     S
C669  C668   1.44824       .     S
C668  C669   1.44824       .     S
H679  C668   0.94997       .     S
C668  H679   0.94997       .     S
C670  C669   1.39468       .     S
C669  C670   1.39468       .     S
C671  C670   1.41354       .     S
C670  C671   1.41354       .     S
H680  C670   0.94938       .     S
C670  H680   0.94938       .     S
C672  C671   1.41402       .     S
C671  C672   1.41402       .     S
C673  C672   1.37230       .     S
C672  C673   1.37230       .     S
H681  C672   0.94836       .     S
C672  H681   0.94836       .     S
H682  C673   0.95031       .     S
C673  H682   0.95031       .     S
O684  S683   1.46295       .     S
S683  O684   1.46295       .     S
O685  S683   1.44627       .     S
S683  O685   1.44627       .     S
O686  S683   1.45649       .     S
S683  O686   1.45649       .     S
C687  S683   1.74816       .     S
S683  C687   1.74816       .     S
C688  C687   1.35457       .     S
C687  C688   1.35457       .     S
C700  C687   1.43172       .     S
C687  C700   1.43172       .     S
C689  C688   1.42497       .     S
C688  C689   1.42497       .     S
H701  C688   0.95164       .     S
C688  H701   0.95164       .     S
C690  C689   1.39763       .     S
C689  C690   1.39763       .     S
C698  C689   1.42098       .     S
C689  C698   1.42098       .     S
C691  C690   1.40341       .     S
C690  C691   1.40341       .     S
H702  C690   0.95005       .     S
C690  H702   0.95005       .     S
C692  C691   1.40291       .     S
C691  C692   1.40291       .     S
C696  C691   1.42577       .     S
C691  C696   1.42577       .     S
C693  C692   1.36674       .     S
C692  C693   1.36674       .     S
H703  C692   0.95266       .     S
C692  H703   0.95266       .     S
C694  C693   1.39408       .     S
C693  C694   1.39408       .     S
H704  C693   0.94836       .     S
C693  H704   0.94836       .     S
C695  C694   1.37323       .     S
C694  C695   1.37323       .     S
H705  C694   0.95184   1_565     S
C694  H705   0.95184   1_545     S
C696  C695   1.42658       .     S
C695  C696   1.42658       .     S
H706  C695   0.95086       .     S
C695  H706   0.95086       .     S
C697  C696   1.37941       .     S
C696  C697   1.37941       .     S
C698  C697   1.40005       .     S
C697  C698   1.40005       .     S
H707  C697   0.95018       .     S
C697  H707   0.95018       .     S
C699  C698   1.43332       .     S
C698  C699   1.43332       .     S
C700  C699   1.35770       .     S
C699  C700   1.35770       .     S
H708  C699   0.95163       .     S
C699  H708   0.95163       .     S
H709  C700   0.94923       .     S
C700  H709   0.94923       .     S
C711  N710   1.49117       .     S
N710  C711   1.49117       .     S
H730  N710   0.91237       .     S
N710  H730   0.91237       .     S
H731  N710   0.91199       .     S
N710  H731   0.91199       .     S
H732  N710   0.91034       .     S
N710  H732   0.91034       .     S
C712  C711   1.53215       .     S
C711  C712   1.53215       .     S
C718  C711   1.53988       .     S
C711  C718   1.53988       .     S
C724  C711   1.56201       .     S
C711  C724   1.56201       .     S
C713  C712   1.38548       .     S
C712  C713   1.38548       .     S
C717  C712   1.38796       .     S
C712  C717   1.38796       .     S
C714  C713   1.39071       .     S
C713  C714   1.39071       .     S
H733  C713   0.95290       .     S
C713  H733   0.95290       .     S
C715  C714   1.39107       .     S
C714  C715   1.39107       .     S
H734  C714   0.95097       .     S
C714  H734   0.95097       .     S
C716  C715   1.37279       .     S
C715  C716   1.37279       .     S
H735  C715   0.94847       .     S
C715  H735   0.94847       .     S
C717  C716   1.39305       .     S
C716  C717   1.39305       .     S
H736  C716   0.94928       .     S
C716  H736   0.94928       .     S
H737  C717   0.94903       .     S
C717  H737   0.94903       .     S
C719  C718   1.37962       .     S
C718  C719   1.37962       .     S
C723  C718   1.40284       .     S
C718  C723   1.40284       .     S
C720  C719   1.42092       .     S
C719  C720   1.42092       .     S
H738  C719   0.95351       .     S
C719  H738   0.95351       .     S
C721  C720   1.37227       .     S
C720  C721   1.37227       .     S
H739  C720   0.95053       .     S
C720  H739   0.95053       .     S
C722  C721   1.35041       .     S
C721  C722   1.35041       .     S
H740  C721   0.94875       .     S
C721  H740   0.94875       .     S
C723  C722   1.40734       .     S
C722  C723   1.40734       .     S
H741  C722   0.95019       .     S
C722  H741   0.95019       .     S
H742  C723   0.95031       .     S
C723  H742   0.95031       .     S
C725  C724   1.38454       .     S
C724  C725   1.38454       .     S
C729  C724   1.39024       .     S
C724  C729   1.39024       .     S
C726  C725   1.38454       .     S
C725  C726   1.38454       .     S
H743  C725   0.94681       .     S
C725  H743   0.94681       .     S
C727  C726   1.38076       .     S
C726  C727   1.38076       .     S
H744  C726   0.95226       .     S
C726  H744   0.95226       .     S
C728  C727   1.34009       .     S
C727  C728   1.34009       .     S
H745  C727   0.94942       .     S
C727  H745   0.94942       .     S
C729  C728   1.40949       .     S
C728  C729   1.40949       .     S
H746  C728   0.95261       .     S
C728  H746   0.95261       .     S
H747  C729   0.95079       .     S
C729  H747   0.95079       .     S
C749  C748   1.35579       .     S
C748  C749   1.35579       .     S
C753  C748   1.42292       .     S
C748  C753   1.42292       .     S
C754  C748   1.50371       .     S
C748  C754   1.50371       .     S
C750  C749   1.34727       .     S
C749  C750   1.34727       .     S
H766  C749   0.94899       .     S
C749  H766   0.94899       .     S
C751  C750   1.41143       .     S
C750  C751   1.41143       .     S
C756  C750   1.48331       .     S
C750  C756   1.48331       .     S
C752  C751   1.35216       .     S
C751  C752   1.35216       .     S
H768  C751   0.94944       .     S
C751  H768   0.94944       .     S
C753  C752   1.38130       .     S
C752  C753   1.38130       .     S
C755  C752   1.53355       .     S
C752  C755   1.53355       .     S
H767  C753   0.95278       .     S
C753  H767   0.95278       .     S
H757  C754   0.98056       .     S
C754  H757   0.98056       .     S
H758  C754   0.97884       .     S
C754  H758   0.97884       .     S
H759  C754   0.97943       .     S
C754  H759   0.97943       .     S
H760  C755   0.98001       .     S
C755  H760   0.98001       .     S
H761  C755   0.98378       .     S
C755  H761   0.98378       .     S
H762  C755   0.97909       .     S
C755  H762   0.97909       .     S
H763  C756   0.98126       .     S
C756  H763   0.98126       .     S
H764  C756   0.97893       .     S
C756  H764   0.97893       .     S
H765  C756   0.98030       .     S
C756  H765   0.98030       .     S
O770  S769   1.45427       .     S
S769  O770   1.45427       .     S
O771  S769   1.45646       .     S
S769  O771   1.45646       .     S
O772  S769   1.44907       .     S
S769  O772   1.44907       .     S
C773  S769   1.75717       .     S
S769  C773   1.75717       .     S
C774  C773   1.34060       .     S
C773  C774   1.34060       .     S
C778  C773   1.41919       .     S
C773  C778   1.41919       .     S
C775  C774   1.43179       .     S
C774  C775   1.43179       .     S
H787  C774   0.95006       .     S
C774  H787   0.95006       .     S
C776  C775   1.43246       .     S
C775  C776   1.43246       .     S
C777  C775   1.37838       .     S
C775  C777   1.37838       .     S
C779  C776   1.41605       .     S
C776  C779   1.41605       .     S
C780  C776   1.39152       .     S
C776  C780   1.39152       .     S
C786  C777   1.42442       .     S
C777  C786   1.42442       .     S
H788  C777   0.94806       .     S
C777  H788   0.94806       .     S
C779  C778   1.37464       .     S
C778  C779   1.37464       .     S
H789  C778   0.95004       .     S
C778  H789   0.95004       .     S
H790  C779   0.95178       .     S
C779  H790   0.95178       .     S
C781  C780   1.38837       .     S
C780  C781   1.38837       .     S
H791  C780   0.94874       .     S
C780  H791   0.94874       .     S
C782  C781   1.45568   1_655     S
C781  C782   1.45568   1_455     S
C786  C781   1.40872       .     S
C781  C786   1.40872       .     S
C783  C782   1.37521       .     S
C782  C783   1.37521       .     S
H792  C782   0.94957       .     S
C782  H792   0.94957       .     S
C784  C783   1.36752       .     S
C783  C784   1.36752       .     S
H793  C783   0.94871       .     S
C783  H793   0.94871       .     S
C785  C784   1.34767   1_455     S
C784  C785   1.34768   1_655     S
H794  C784   0.95009       .     S
C784  H794   0.95009       .     S
C786  C785   1.42218       .     S
C785  C786   1.42218       .     S
H795  C785   0.94834       .     S
C785  H795   0.94834       .     S
C797  C796   1.38117       .     S
C796  C797   1.38117       .     S
C801  C796   1.40109       .     S
C796  C801   1.40109       .     S
H814  C796   0.95114       .     S
C796  H814   0.95114       .     S
C798  C797   1.38508       .     S
C797  C798   1.38508       .     S
C802  C797   1.49139       .     S
C797  C802   1.49139       .     S
C799  C798   1.41405       .     S
C798  C799   1.41405       .     S
H815  C798   0.95138       .     S
C798  H815   0.95138       .     S
C800  C799   1.37445       .     S
C799  C800   1.37445       .     S
C804  C799   1.49257       .     S
C799  C804   1.49257       .     S
C801  C800   1.37610       .     S
C800  C801   1.37610       .     S
H816  C800   0.94951       .     S
C800  H816   0.94951       .     S
C803  C801   1.48820       .     S
C801  C803   1.48820       .     S
H805  C802   0.97983       .     S
C802  H805   0.97983       .     S
H806  C802   0.97756       .     S
C802  H806   0.97756       .     S
H807  C802   0.98132       .     S
C802  H807   0.98132       .     S
H808  C803   0.97874       .     S
C803  H808   0.97874       .     S
H809  C803   0.97950       .     S
C803  H809   0.97950       .     S
H810  C803   0.98028       .     S
C803  H810   0.98028       .     S
H811  C804   0.97913       .     S
C804  H811   0.97913       .     S
H812  C804   0.97854       .     S
C804  H812   0.97854       .     S
H813  C804   0.98383       .     S
C804  H813   0.98383       .     S
O818  S817   1.44882       .     S
S817  O818   1.44882       .     S
O819  S817   1.46240   1_554     S
S817  O819   1.46240   1_556     S
O820  S817   1.45338       .     S
S817  O820   1.45338       .     S
C821  S817   1.75878       .     S
S817  C821   1.75878       .     S
C822  C821   1.43304       .     S
C821  C822   1.43304       .     S
C824  C821   1.34997   1_554     S
C821  C824   1.34997   1_556     S
C823  C822   1.36492       .     S
C822  C823   1.36492       .     S
H835  C822   0.94893       .     S
C822  H835   0.94893       .     S
C827  C823   1.40441       .     S
C823  C827   1.40441       .     S
H836  C823   0.95242       .     S
C823  H836   0.95242       .     S
C826  C824   1.43017       .     S
C824  C826   1.43017       .     S
H837  C824   0.95032       .     S
C824  H837   0.95032       .     S
C826  C825   1.40085       .     S
C825  C826   1.40085       .     S
C833  C825   1.38341       .     S
C825  C833   1.38341       .     S
H838  C825   0.95122       .     S
C825  H838   0.95122       .     S
C827  C826   1.42759   1_556     S
C826  C827   1.42759   1_554     S
C834  C827   1.40496       .     S
C827  C834   1.40496       .     S
C831  C828   1.41641       .     S
C828  C831   1.41641       .     S
C833  C828   1.42417   1_554     S
C828  C833   1.42417   1_556     S
C834  C828   1.38720       .     S
C828  C834   1.38720       .     S
C830  C829   1.37234       .     S
C829  C830   1.37234       .     S
C831  C829   1.35077   1_456     S
C829  C831   1.35077   1_654     S
H839  C829   0.95084       .     S
C829  H839   0.95084       .     S
C832  C830   1.37118       .     S
C830  C832   1.37118       .     S
H840  C830   0.94825       .     S
C830  H840   0.94825       .     S
H841  C831   0.95201       .     S
C831  H841   0.95201       .     S
C833  C832   1.39890   1_455     S
C832  C833   1.39890   1_655     S
H842  C832   0.94966       .     S
C832  H842   0.94966       .     S
H843  C834   0.94714       .     S
C834  H843   0.94714       .     S
C845  C844   1.39109       .     S
C844  C845   1.39109       .     S
C849  C844   1.37410       .     S
C844  C849   1.37410       .     S
C851  C844   1.52160       .     S
C844  C851   1.52160       .     S
C846  C845   1.38481       .     S
C845  C846   1.38481       .     S
H862  C845   0.94914       .     S
C845  H862   0.94914       .     S
C847  C846   1.37613       .     S
C846  C847   1.37613       .     S
C850  C846   1.50297       .     S
C846  C850   1.50297       .     S
C848  C847   1.36779       .     S
C847  C848   1.36779       .     S
H863  C847   0.94975       .     S
C847  H863   0.94975       .     S
C849  C848   1.39966       .     S
C848  C849   1.39966       .     S
C852  C848   1.51323       .     S
C848  C852   1.51323       .     S
H864  C849   0.95075       .     S
C849  H864   0.95075       .     S
H853  C850   0.98147       .     S
C850  H853   0.98147       .     S
H854  C850   0.98045       .     S
C850  H854   0.98045       .     S
H855  C850   0.98069       .     S
C850  H855   0.98069       .     S
H856  C851   0.98199       .     S
C851  H856   0.98199       .     S
H857  C851   0.97887       .     S
C851  H857   0.97887       .     S
H858  C851   0.97990       .     S
C851  H858   0.97990       .     S
H859  C852   0.97756       .     S
C852  H859   0.97756       .     S
H860  C852   0.97881       .     S
C852  H860   0.97881       .     S
H861  C852   0.98198       .     S
C852  H861   0.98198       .     S
O866  S865   1.45689   1_556     S
S865  O866   1.45689   1_554     S
O867  S865   1.44918       .     S
S865  O867   1.44918       .     S
O868  S865   1.45263   1_556     S
S865  O868   1.45264   1_554     S
C869  S865   1.78725       .     S
S865  C869   1.78725       .     S
C870  C869   1.35016   1_556     S
C869  C870   1.35016   1_554     S
C882  C869   1.39946       .     S
C869  C882   1.39946       .     S
C871  C870   1.39937       .     S
C870  C871   1.39937       .     S
H883  C870   0.95024       .     S
C870  H883   0.95024       .     S
C872  C871   1.41061       .     S
C871  C872   1.41061       .     S
C880  C871   1.44272   1_554     S
C871  C880   1.44272   1_556     S
C873  C872   1.40046       .     S
C872  C873   1.40046       .     S
H884  C872   0.95002       .     S
C872  H884   0.95002       .     S
C874  C873   1.43727       .     S
C873  C874   1.43727       .     S
C878  C873   1.42318   1_554     S
C873  C878   1.42318   1_556     S
C875  C874   1.34294       .     S
C874  C875   1.34294       .     S
H885  C874   0.94950       .     S
C874  H885   0.94950       .     S
C876  C875   1.41826       .     S
C875  C876   1.41826       .     S
H886  C875   0.95027       .     S
C875  H886   0.95027       .     S
C877  C876   1.32158   1_554     S
C876  C877   1.32158   1_556     S
H887  C876   0.95051       .     S
C876  H887   0.95051       .     S
C878  C877   1.44931       .     S
C877  C878   1.44931       .     S
H888  C877   0.94806       .     S
C877  H888   0.94806       .     S
C879  C878   1.42556       .     S
C878  C879   1.42556       .     S
C880  C879   1.39132       .     S
C879  C880   1.39132       .     S
H889  C879   0.94810       .     S
C879  H889   0.94810       .     S
C881  C880   1.37948       .     S
C880  C881   1.37948       .     S
C882  C881   1.37012       .     S
C881  C882   1.37012       .     S
H890  C881   0.94998       .     S
C881  H890   0.94998       .     S
H891  C882   0.95041       .     S
C882  H891   0.95041       .     S
C893  N892   1.50047       .     S
N892  C893   1.50047       .     S
H912  N892   0.91063       .     S
N892  H912   0.91063       .     S
H913  N892   0.90919       .     S
N892  H913   0.90919       .     S
H914  N892   0.90990       .     S
N892  H914   0.90990       .     S
C894  C893   1.53540       .     S
C893  C894   1.53540       .     S
C896  C893   1.52253       .     S
C893  C896   1.52253       .     S
C899  C893   1.53173       .     S
C893  C899   1.53173       .     S
C895  C894   1.41346       .     S
C894  C895   1.41346       .     S
C905  C894   1.39994       .     S
C894  C905   1.39994       .     S
C902  C895   1.38949       .     S
C895  C902   1.38949       .     S
H915  C895   0.95087       .     S
C895  H915   0.95087       .     S
C897  C896   1.41468       .     S
C896  C897   1.41468       .     S
C911  C896   1.38755       .     S
C896  C911   1.38755       .     S
C898  C897   1.39027       .     S
C897  C898   1.39027       .     S
H916  C897   0.94965       .     S
C897  H916   0.94965       .     S
C909  C898   1.37454       .     S
C898  C909   1.37454       .     S
H917  C898   0.94859       .     S
C898  H917   0.94859       .     S
C900  C899   1.37644       .     S
C899  C900   1.37644       .     S
C901  C899   1.39648       .     S
C899  C901   1.39648       .     S
C906  C900   1.38709       .     S
C900  C906   1.38709       .     S
H918  C900   0.95282       .     S
C900  H918   0.95282       .     S
C907  C901   1.39251       .     S
C901  C907   1.39251       .     S
H919  C901   0.95175       .     S
C901  H919   0.95175       .     S
C903  C902   1.38331       .     S
C902  C903   1.38331       .     S
H920  C902   0.94870       .     S
C902  H920   0.94870       .     S
C904  C903   1.36899       .     S
C903  C904   1.36899       .     S
H921  C903   0.94957       .     S
C903  H921   0.94957       .     S
C905  C904   1.39148       .     S
C904  C905   1.39148       .     S
H922  C904   0.95136       .     S
C904  H922   0.95136       .     S
H923  C905   0.95114       .     S
C905  H923   0.95114       .     S
C908  C906   1.38377       .     S
C906  C908   1.38377       .     S
H924  C906   0.95023       .     S
C906  H924   0.95023       .     S
C908  C907   1.35407       .     S
C907  C908   1.35407       .     S
H925  C907   0.94960       .     S
C907  H925   0.94960       .     S
H926  C908   0.95285       .     S
C908  H926   0.95285       .     S
C910  C909   1.38449       .     S
C909  C910   1.38449       .     S
H927  C909   0.94985       .     S
C909  H927   0.94985       .     S
C911  C910   1.39606       .     S
C910  C911   1.39606       .     S
H928  C910   0.94826       .     S
C910  H928   0.94826       .     S
H929  C911   0.95222       .     S
C911  H929   0.95222       .     S
O931  S930   1.46100       .     S
S930  O931   1.46100       .     S
O932  S930   1.44135       .     S
S930  O932   1.44135       .     S
O933  S930   1.44850       .     S
S930  O933   1.44850       .     S
C934  S930   1.76769       .     S
S930  C934   1.76769       .     S
C935  C934   1.34365       .     S
C934  C935   1.34365       .     S
C947  C934   1.42147       .     S
C934  C947   1.42147       .     S
C936  C935   1.41446       .     S
C935  C936   1.41446       .     S
H948  C935   0.94951       .     S
C935  H948   0.94951       .     S
C937  C936   1.39808       .     S
C936  C937   1.39808       .     S
C945  C936   1.44749       .     S
C936  C945   1.44749       .     S
C938  C937   1.41635       .     S
C937  C938   1.41635       .     S
H949  C937   0.94917       .     S
C937  H949   0.94917       .     S
C939  C938   1.39212       .     S
C938  C939   1.39212       .     S
C943  C938   1.42222       .     S
C938  C943   1.42222       .     S
C940  C939   1.39317   1_655     S
C939  C940   1.39317   1_455     S
H950  C939   0.94877       .     S
C939  H950   0.94877       .     S
C941  C940   1.42451       .     S
C940  C941   1.42451       .     S
H951  C940   0.94923       .     S
C940  H951   0.94923       .     S
C942  C941   1.34922       .     S
C941  C942   1.34922       .     S
H952  C941   0.95006       .     S
C941  H952   0.95006       .     S
C943  C942   1.45350   1_455     S
C942  C943   1.45350   1_655     S
H953  C942   0.94957       .     S
C942  H953   0.94957       .     S
C944  C943   1.37207       .     S
C943  C944   1.37207       .     S
C945  C944   1.39642       .     S
C944  C945   1.39642       .     S
H954  C944   0.94987       .     S
C944  H954   0.94987       .     S
C946  C945   1.40334       .     S
C945  C946   1.40334       .     S
C947  C946   1.35162       .     S
C946  C947   1.35162       .     S
H955  C946   0.95040       .     S
C946  H955   0.95040       .     S
H956  C947   0.94923       .     S
C947  H956   0.94923       .     S
O958  S957   1.45080       .     S
S957  O958   1.45080       .     S
O959  S957   1.44804       .     S
S957  O959   1.44804       .     S
O960  S957   1.46339   1_556     S
S957  O960   1.46339   1_554     S
C961  S957   1.76392       .     S
S957  C961   1.76392       .     S
C962  C961   1.41122       .     S
C961  C962   1.41122       .     S
C964  C961   1.35544   1_556     S
C961  C964   1.35544   1_554     S
C963  C962   1.36781       .     S
C962  C963   1.36781       .     S
H975  C962   0.94894       .     S
C962  H975   0.94894       .     S
C965  C963   1.43400       .     S
C963  C965   1.43400       .     S
H976  C963   0.94999       .     S
C963  H976   0.94999       .     S
C966  C964   1.43520   1_554     S
C964  C966   1.43520   1_556     S
H977  C964   0.95022       .     S
C964  H977   0.95022       .     S
C966  C965   1.43092       .     S
C965  C966   1.43092       .     S
C974  C965   1.38926       .     S
C965  C974   1.38926       .     S
C967  C966   1.40305   1_556     S
C966  C967   1.40305   1_554     S
C969  C967   1.39468       .     S
C967  C969   1.39468       .     S
H978  C967   0.94967       .     S
C967  H978   0.94967       .     S
C969  C968   1.42397   1_556     S
C968  C969   1.42396   1_554     S
C970  C968   1.44139       .     S
C968  C970   1.44139       .     S
C974  C968   1.40367       .     S
C968  C974   1.40367       .     S
C973  C969   1.42880       .     S
C969  C973   1.42880       .     S
C971  C970   1.34478       .     S
C970  C971   1.34478       .     S
H979  C970   0.95163       .     S
C970  H979   0.95163       .     S
C972  C971   1.41057   1_556     S
C971  C972   1.41057   1_554     S
H980  C971   0.95085       .     S
C971  H980   0.95085       .     S
C973  C972   1.37558       .     S
C972  C973   1.37558       .     S
H981  C972   0.95216       .     S
C972  H981   0.95216       .     S
H982  C973   0.95059       .     S
C973  H982   0.95059       .     S
H983  C974   0.94764       .     S
C974  H983   0.94764       .     S
C989  C984   1.51538   1_565     S
C984  C989   1.51538   1_545     S
H993  C984   0.98000       .     S
C984  H993   0.98000       .     S
H994  C984   0.98030       .     S
C984  H994   0.98030       .     S
H995  C984   0.98034       .     S
C984  H995   0.98034       .     S
C986  C985   1.37683       .     S
C985  C986   1.37683       .     S
C990  C985   1.41720   1_545     S
C985  C990   1.41720   1_565     S
C992  C985   1.51989   1_655     S
C985  C992   1.51989   1_455     S
C987  C986   1.40203       .     S
C986  C987   1.40203       .     S
H1002 C986   0.95058   1_655     S
C986  H1002  0.95058   1_455     S
C988  C987   1.37429       .     S
C987  C988   1.37429       .     S
C991  C987   1.48816       .     S
C987  C991   1.48816       .     S
C989  C988   1.38366       .     S
C988  C989   1.38366       .     S
H1003 C988   0.95180       .     S
C988  H1003  0.95180       .     S
C990  C989   1.42585   1_545     S
C989  C990   1.42585   1_565     S
H1004 C990   0.95246       .     S
C990  H1004  0.95246       .     S
H996  C991   0.98240   1_655     S
C991  H996   0.98240   1_455     S
H997  C991   0.97925       .     S
C991  H997   0.97925       .     S
H998  C991   0.98065       .     S
C991  H998   0.98065       .     S
H999  C992   0.97875   1_455     S
C992  H999   0.97875   1_655     S
H1000 C992   0.98116   1_545     S
C992  H1000  0.98116   1_565     S
H1001 C992   0.97907       .     S
C992  H1001  0.97907       .     S
C1006 C1005  1.40018   1_455     S
C1005 C1006  1.40018   1_655     S
C1010 C1005  1.44883       .     S
C1005 C1010  1.44883       .     S
H1023 C1005  0.95235       .     S
C1005 H1023  0.95235       .     S
C1007 C1006  1.40270       .     S
C1006 C1007  1.40270       .     S
C1012 C1006  1.50628       .     S
C1006 C1012  1.50628       .     S
C1008 C1007  1.44088   1_655     S
C1007 C1008  1.44088   1_455     S
H1024 C1007  0.94855       .     S
C1007 H1024  0.94855       .     S
C1009 C1008  1.35540       .     S
C1008 C1009  1.35540       .     S
C1013 C1008  1.46367       .     S
C1008 C1013  1.46367       .     S
C1010 C1009  1.33949       .     S
C1009 C1010  1.33949       .     S
H1025 C1009  0.95094       .     S
C1009 H1025  0.95094       .     S
C1011 C1010  1.49992       .     S
C1010 C1011  1.49992       .     S
H1014 C1011  0.97806       .     S
C1011 H1014  0.97806       .     S
H1015 C1011  0.97937       .     S
C1011 H1015  0.97937       .     S
H1016 C1011  0.98003       .     S
C1011 H1016  0.98003       .     S
H1017 C1012  0.97859       .     S
C1012 H1017  0.97859       .     S
H1018 C1012  0.98037       .     S
C1012 H1018  0.98037       .     S
H1019 C1012  0.98043       .     S
C1012 H1019  0.98043       .     S
H1020 C1013  0.97914   1_455     S
C1013 H1020  0.97914   1_655     S
H1021 C1013  0.97925       .     S
C1013 H1021  0.97925       .     S
H1022 C1013  0.98165       .     S
C1013 H1022  0.98165       .     S
O1027 S1026  1.45707       .     S
S1026 O1027  1.45707       .     S
O1028 S1026  1.44108   1_556     S
S1026 O1028  1.44108   1_554     S
O1029 S1026  1.44175       .     S
S1026 O1029  1.44175       .     S
C1030 S1026  1.77003       .     S
S1026 C1030  1.77003       .     S
C1031 C1030  1.35989       .     S
C1030 C1031  1.35989       .     S
C1034 C1030  1.40799       .     S
C1030 C1034  1.40799       .     S
C1032 C1031  1.42830       .     S
C1031 C1032  1.42830       .     S
H1044 C1031  0.95219   1_556     S
C1031 H1044  0.95220   1_554     S
C1033 C1032  1.43426       .     S
C1032 C1033  1.43426       .     S
C1036 C1032  1.41379   1_556     S
C1032 C1036  1.41379   1_554     S
C1035 C1033  1.41148       .     S
C1033 C1035  1.41148       .     S
C1043 C1033  1.37762       .     S
C1033 C1043  1.37762       .     S
C1035 C1034  1.37941       .     S
C1034 C1035  1.37941       .     S
H1045 C1034  0.95004       .     S
C1034 H1045  0.95004       .     S
H1046 C1035  0.94769       .     S
C1035 H1046  0.94769       .     S
C1037 C1036  1.39048   1_554     S
C1036 C1037  1.39048   1_556     S
H1047 C1036  0.94993       .     S
C1036 H1047  0.94993       .     S
C1038 C1037  1.43659   1_556     S
C1037 C1038  1.43659   1_554     S
C1042 C1037  1.42864       .     S
C1037 C1042  1.42864       .     S
C1039 C1038  1.35832       .     S
C1038 C1039  1.35832       .     S
H1048 C1038  0.95111       .     S
C1038 H1048  0.95111       .     S
C1040 C1039  1.40222   1_554     S
C1039 C1040  1.40222   1_556     S
H1049 C1039  0.95150       .     S
C1039 H1049  0.95150       .     S
C1041 C1040  1.35766       .     S
C1040 C1041  1.35766       .     S
H1050 C1040  0.95159       .     S
C1040 H1050  0.95159       .     S
C1042 C1041  1.42626       .     S
C1041 C1042  1.42626       .     S
H1051 C1041  0.94851       .     S
C1041 H1051  0.94851       .     S
C1043 C1042  1.38363       .     S
C1042 C1043  1.38363       .     S
H1052 C1043  0.95060       .     S
C1043 H1052  0.95060       .     S
